<additional>
<tlLogic id="tls_120" type="static" programID="1" offset="0">
	<phase duration="2" state="rOOOrrrrryyrrrrrOOrrrrrOrrrrrrryrrgggyr"/>
	<phase duration="1" state="rOOOrrrrryyrrrrrOOrrrrrOrrrrrrryrrgggrr"/>
	<phase duration="1" state="rOOOrrrrrrrrrrrrOOrrrrrOrrrrrrrrrrgggrr"/>
	<phase duration="7" state="gOOOrrrrrrrrrgggOOrrrrrOrrrrrrrrrrgggrr"/>
	<phase duration="19" state="gOOOrrrrrrrrrgggOOrrrrrOgggggrrrrrgggrr"/>
	<phase duration="4" state="yOOOrrrrrrrrryyyOOrrrrrOgggggrrrrrgggrr"/>
	<phase duration="1" state="rOOOrrrrrrrrrrrrOOrrrrrOgggggrrrrrgggrr"/>
	<phase duration="4" state="rOOOrrrrrrrrrrrrOOrrrrrOgggggggggrgggrr"/>
	<phase duration="4" state="rOOOggggrrrrrrrrOOrrrrrOgggggggggrgggrr"/>
	<phase duration="4" state="rOOOggggrrrrrrrrOOrrrrrOyyyyyggggrgggrr"/>
	<phase duration="3" state="rOOOggggrrrrrrrrOOrrrrrOrrrrrggggrgggrr"/>
	<phase duration="2" state="rOOOggggrrrrrrrrOOrrrrrOrrrrrggggrgygrr"/>
	<phase duration="2" state="rOOOggggrrrrrrrrOOrrrrrOrrrrryyggrgygrr"/>
	<phase duration="2" state="rOOOggggrrrrrrrrOOrrrrrOrrrrryyggggrgrr"/>
	<phase duration="1" state="rOOOggggrrrrrrrrOOrrrrrOrrrrrrrggggryrr"/>
	<phase duration="1" state="rOOOgggggrrrrrrrOOrrrrrOrrrrrrrgggyryrr"/>
	<phase duration="1" state="rOOOyyyygrrrrrrrOOrrrrrOrrrrrrrgggyryrr"/>
	<phase duration="1" state="rOOOyyyygrrrgrrrOOrrrrgOrrrrrrrgggyryrr"/>
	<phase duration="1" state="rOOOyyyygrrrgrrrOOrrgggOrrrrrrrgggyrrrr"/>
	<phase duration="1" state="rOOOyyyygrrrgrrrOOrrgggOrrrrrrrgggrrrrr"/>
	<phase duration="2" state="rOOOrrrrgrrrgrrrOOgggggOrrrrrrrgggrrrrr"/>
	<phase duration="3" state="rOOOrrrrgrrrgrrrOOgggggOrrrrrrrgggrrrgg"/>
	<phase duration="5" state="rOOOrrrrgrrggrrrOOgggggOrrrrrrrgggrrrgg"/>
	<phase duration="3" state="rOOOrrrryrryyrrrOOgggggOrrrrrrrgggrrrgg"/>
	<phase duration="1" state="rOOOrrrryrryyrrrOOggyyyOrrrrrrrgggrrrgg"/>
	<phase duration="2" state="rOOOrrrrrrrrrrrrOOyyyyyOrrrrrrrggyrrrgg"/>
	<phase duration="1" state="rOOOrrrrrrrrrrrrOOyyyyyOrrrrrrrggyrrrgy"/>
	<phase duration="1" state="rOOOrrrrrrrrrrrrOOyyrrrOrrrrrrrggyrrrgy"/>
	<phase duration="1" state="rOOOrrrrrggrrrrrOOrrrrrOrrrrrrrggrrrggy"/>
	<phase duration="1" state="rOOOrrrrrggrrrrrOOrrrrrOrrrrrrrggrgrggy"/>
	<phase duration="3" state="rOOOrrrrrggrrrrrOOrrrrrOrrrrrrrggrgrggr"/>
	<phase duration="1" state="rOOOrrrrrggrrrrrOOrrrrrOrrrrrrrggrggggr"/>
	<phase duration="2" state="rOOOrrrrrggrrrrrOOrrrrrOrrrrrrrgyrggggr"/>
	<phase duration="1" state="rOOOrrrrrggrrrrrOOrrrrrOrrrrrrrgyrgggyr"/>
	<phase duration="1" state="rOOOrrrrryyrrrrrOOrrrrrOrrrrrrryyrgggyr"/>
</tlLogic>
<tlLogic id="tls_134" type="static" programID="1" offset="0">
	<phase duration="1" state="rrrOOOOrrrrrrrrrrrrrrrrrrrgrOrrgrrrrrrrrrrrrrgggO"/>
	<phase duration="1" state="rrrOOOOrrrrggrrrrrrrrrrrrrgrOrrgrrrrrrrrrrrrrgggO"/>
	<phase duration="1" state="rrrOOOOrrrrggrrrrrrrrrrrgrgrOrrgrrrrrrrrrrrrrgggO"/>
	<phase duration="3" state="rrrOOOOrrrrggrrrrrrrrrrrgrgrOrrgrrrrrrrrrrrrggggO"/>
	<phase duration="3" state="rrrOOOOrrrryyrrrrrrrrrrrgrgrOrrgrrrrrrrrrrrrggggO"/>
	<phase duration="1" state="rrrOOOOrrrryyrrrrrrrrrrrgryrOrryrrrrrrrrrrrrggggO"/>
	<phase duration="3" state="rrrOOOOrrrrrrrrrrrrrrrrrgryrOrryrrrrrrrrrrrrggggO"/>
	<phase duration="2" state="rrrOOOOrrrrrrrrrrrrrrrrrgrrrOrrrrrrrrrrrrrrrggggO"/>
	<phase duration="1" state="rrrOOOOrrrrrrrrrrrrrrrrrgrrrOrrrrrrrrrrrrrrrgyggO"/>
	<phase duration="3" state="rrrOOOOrrrrrrrrrrrrrrrrrgrrgOrrrrrrrrrrrrrrrgyggO"/>
	<phase duration="3" state="rrrOOOOrrrrrrrrrrrrrrrrrgrrgOrrrrrrrrrrrrrrrgrggO"/>
	<phase duration="3" state="rrrOOOOrrrrrrrrrrrrrrrrryrryOrrrrrrrrrrrrrrrgrggO"/>
	<phase duration="1" state="rrrOOOOggggrrrrrrrrrrrrryrryOrrrrrrrrrrrrrrrgrggO"/>
	<phase duration="1" state="rrrOOOOggggrrrrrrrrrrrrrrrrrOrrrrrrrrrrrrrrrgrggO"/>
	<phase duration="1" state="rrrOOOOggggrrrrrrrrrrrrrrrrrOrrrrrrrrrrrrrrrgrygO"/>
	<phase duration="3" state="rrrOOOOggggrrrrrrrrrrrrrrgrrOrrrrrrrrrrrrrrrgrygO"/>
	<phase duration="2" state="rrrOOOOggggrrrrrrrggrrrrrgrrOrrrrrrrrrrrrrrrgrrgO"/>
	<phase duration="4" state="rrrOOOOggggrrrrrrrggrrrrrgrrOrrrrrrrrrrgggrrgrrgO"/>
	<phase duration="14" state="rrrOOOOggggrrrrrrrggrrrrrgrrOggrrgggggggggrrgrrgO"/>
	<phase duration="4" state="rrrOOOOggggrrrrrrrggrrrrryrrOggrrgggggggggrrgrrgO"/>
	<phase duration="3" state="rrrOOOOggggrrrrrrrggrrrrrrrrOggrrggggggggggggrrgO"/>
	<phase duration="4" state="rrrOOOOyyyyrrrrrrrggrrrrrrrrOggrrggggggggggggrrgO"/>
	<phase duration="1" state="rrrOOOOrrrrrrrrrrrggggggrrrrOggrrggggggggggggrrgO"/>
	<phase duration="28" state="rrrOOOOrrrrrrrrrrrggggggrrrrOggrrgggggggggggggrgO"/>
	<phase duration="4" state="rrrOOOOrrrrrrrrrrrggggggrrrrOggrrggggggyyyyyggrgO"/>
	<phase duration="2" state="rrrOOOOrrrrrrrrrrrggggggrrrrOggrrggggggrrrrrggrgO"/>
	<phase duration="1" state="rrrOOOOrrrrrrrrrrryyggggrrrrOggrrggggggrrrrrggryO"/>
	<phase duration="1" state="rrrOOOOrrrrrrrrrrryyyyyyrrrrOggrrggggggrrrrrggryO"/>
	<phase duration="2" state="rrrOOOOrrrrrrrrrrryyyyyyrrrrOggrrggggggrrrrrygryO"/>
	<phase duration="1" state="rrrOOOOrrrrrrrrrrrrryyyyrrrrOggrrggggggrrrrrygrrO"/>
	<phase duration="1" state="rrrOOOOrrrrrrgggggrrrrrrrrrrOggrrggggggrrrrrygrrO"/>
	<phase duration="1" state="gggOOOOrrrrrrgggggrrrrrrrrrrOyyrryyyyyyrrrrrrgrrO"/>
	<phase duration="1" state="gggOOOOrrrrrrgggggrrrrrrrrgrOyyrryyyyyyrrrrrrggrO"/>
	<phase duration="2" state="gggOOOOrrrrrrgggggrrrrrrrrgrOyyrgyyyyyyrrrrrrggrO"/>
	<phase duration="3" state="gggOOOOrrrrrrgggggrrrrrrrrgrOrrrgrrrrrrrrrrrrggrO"/>
	<phase duration="3" state="gggOOOOrrrrrrgggggrrrrrrrrgrOrrggrrrrrrrrrrrrggrO"/>
	<phase duration="2" state="gggOOOOrrrrrrgggggrrrrrrrrgrOrrgyrrrrrrrrrrrrggrO"/>
	<phase duration="2" state="gggOOOOrrrrrryyyyyrrrrrrrrgrOrrgyrrrrrrrrrrrrggrO"/>
	<phase duration="2" state="yyyOOOOrrrrrryyyyyrrrrrrrrgrOrrgrrrrrrrrrrrrrggrO"/>
	<phase duration="1" state="yyyOOOOrrrrrrrrrrrrrrrrrrrgrOrrgrrrrrrrrrrrrrggrO"/>
</tlLogic>
<tlLogic id="tls_135" type="static" programID="1" offset="0">
	<phase duration="3" state="OOOOOOOrrOOOrrrgrgggrgrrOOOOOggOOOOOOOOrrrrrrrrgO"/>
	<phase duration="3" state="OOOOOOOggOOOrrrgrgggrgrrOOOOOggOOOOOOOOrrrrrrrrgO"/>
	<phase duration="4" state="OOOOOOOggOOOrrryrgggrgrrOOOOOggOOOOOOOOrrrrrrrrgO"/>
	<phase duration="17" state="OOOOOOOggOOOrrrrrgggrgrrOOOOOggOOOOOOOOrrrrrrrrgO"/>
	<phase duration="4" state="OOOOOOOggOOOrrrrryyyrgrrOOOOOggOOOOOOOOrrrrrrrrgO"/>
	<phase duration="2" state="OOOOOOOggOOOrggrrrrrrgrrOOOOOggOOOOOOOOrrrrrrrryO"/>
	<phase duration="2" state="OOOOOOOggOOOrggrrrrrryrrOOOOOyyOOOOOOOOrrrrrrrryO"/>
	<phase duration="2" state="OOOOOOOggOOOrggrrrrrryrrOOOOOyyOOOOOOOOrrrrrrrrrO"/>
	<phase duration="1" state="OOOOOOOggOOOrggrrrrrrrrrOOOOOrrOOOOOOOOrrrrrrrrrO"/>
	<phase duration="2" state="OOOOOOOggOOOrggrrrrrrrggOOOOOrrOOOOOOOOrrrrrrrrrO"/>
	<phase duration="2" state="OOOOOOOggOOOrggrrrrrrrggOOOOOrrOOOOOOOOgggggrrrrO"/>
	<phase duration="9" state="OOOOOOOggOOOrggrrrrrrrggOOOOOrrOOOOOOOOgggggrrgrO"/>
	<phase duration="5" state="OOOOOOOggOOOrggrrrrrrrggOOOOOrrOOOOOOOOggggggrgrO"/>
	<phase duration="4" state="OOOOOOOggOOOrggrrrrrrrggOOOOOrrOOOOOOOOgggggyrgrO"/>
	<phase duration="5" state="OOOOOOOggOOOrggrrrrrrrggOOOOOrrOOOOOOOOgggggrrgrO"/>
	<phase duration="4" state="OOOOOOOggOOOryyrrrrrrrggOOOOOrrOOOOOOOOgggggrrgrO"/>
	<phase duration="1" state="OOOOOOOggOOOrrrrgrrrrrggOOOOOrrOOOOOOOOgggggrrgrO"/>
	<phase duration="4" state="OOOOOOOggOOOrrrrgrrrgrggOOOOOrrOOOOOOOOgggggrrgrO"/>
	<phase duration="1" state="OOOOOOOyyOOOrrrrgrrrgrggOOOOOrrOOOOOOOOgggggrrgrO"/>
	<phase duration="3" state="OOOOOOOyyOOOrrrrgrrryrggOOOOOrrOOOOOOOOgggggrrgrO"/>
	<phase duration="1" state="OOOOOOOrrOOOrrrrgrrryrggOOOOOrrOOOOOOOOgggggrrgrO"/>
	<phase duration="2" state="OOOOOOOrrOOOrrrrgrrrrrggOOOOOrrOOOOOOOOgggggrggrO"/>
	<phase duration="4" state="OOOOOOOrrOOOrrrryrrrrrggOOOOOrrOOOOOOOOgggggrggrO"/>
	<phase duration="3" state="OOOOOOOrrOOOrrrrrrrrrrggOOOOOrrOOOOOOOOyyyyyrggrO"/>
	<phase duration="1" state="OOOOOOOrrOOOrrrrrrrrrryyOOOOOrrOOOOOOOOyyyyyrggrO"/>
	<phase duration="1" state="OOOOOOOrrOOOrrrrrrrrrryyOOOOOrrOOOOOOOOrrrrrrggrO"/>
	<phase duration="2" state="OOOOOOOrrOOOrrrgrrrrrryyOOOOOrrOOOOOOOOrrrrrrgggO"/>
	<phase duration="1" state="OOOOOOOrrOOOrrrgrrrrrrrrOOOOOrrOOOOOOOOrrrrrrgggO"/>
	<phase duration="5" state="OOOOOOOrrOOOgrrgrrrrrrrrOOOOOrrOOOOOOOOrrrrrrgggO"/>
	<phase duration="1" state="OOOOOOOrrOOOgrrgrrrrrgrrOOOOOrrOOOOOOOOrrrrrrgggO"/>
	<phase duration="2" state="OOOOOOOrrOOOgrrgrrrrrgrrOOOOOrrOOOOOOOOrrrrrrgygO"/>
	<phase duration="1" state="OOOOOOOrrOOOgrrgrrrrrgrrOOOOOggOOOOOOOOrrrrrrgygO"/>
	<phase duration="1" state="OOOOOOOrrOOOgrrgrgggrgrrOOOOOggOOOOOOOOrrrrrrgygO"/>
	<phase duration="12" state="OOOOOOOrrOOOgrrgrgggrgrrOOOOOggOOOOOOOOrrrrrrgrgO"/>
	<phase duration="2" state="OOOOOOOrrOOOyrrgrgggrgrrOOOOOggOOOOOOOOrrrrrrgrgO"/>
	<phase duration="2" state="OOOOOOOrrOOOyrrgrgggrgrrOOOOOggOOOOOOOOrrrrrryrgO"/>
	<phase duration="1" state="OOOOOOOrrOOOrrrgrgggrgrrOOOOOggOOOOOOOOrrrrrryrgO"/>
</tlLogic>
<tlLogic id="tls_136" type="static" programID="1" offset="0">
	<phase duration="10" state="OOrOOOrrrrrrrrrggrrrrgrgggrgOgr"/>
	<phase duration="4" state="OOrOOOrrrrrrrrrggrrrrgrgygrgOgr"/>
	<phase duration="2" state="OOrOOOrrrrrrrrrggrrrrgrgrgrgOgr"/>
	<phase duration="4" state="OOrOOOrrrrgggrryyrrrryrgrgrgOyr"/>
	<phase duration="1" state="OOrOOOrrrrgggrrrrrrrrrrgrgrgOrr"/>
	<phase duration="1" state="OOrOOOrrrrgggrrrrgrrrrggryrgOrr"/>
	<phase duration="1" state="OOrOOOrrrrgggrrrrgrrrrggryryOrr"/>
	<phase duration="1" state="OOrOOOrrrrgggggrrgrrrrggryryOrr"/>
	<phase duration="1" state="OOrOOOrrrrgggggrrgrrrrggryryOrg"/>
	<phase duration="1" state="OOrOOOrrrrgggggrrgrrrrggrrgyOrg"/>
	<phase duration="2" state="OOrOOOrrrryyyggrrgrrrrggrrgrOrg"/>
	<phase duration="2" state="OOrOOOrrrryyyggrrggggrggrrgrOrg"/>
	<phase duration="1" state="OOrOOOrrrrrrrggrrggggrggrrgrOrg"/>
	<phase duration="1" state="OOrOOOrrrrrrrggrrggggrgygrgrOrg"/>
	<phase duration="3" state="OOrOOOggggrrrggrrggggrgygrgrOrg"/>
	<phase duration="2" state="OOrOOOggggrrrggrrggggrgrgrgrOrg"/>
	<phase duration="24" state="OOgOOOggggrrrggrrggggrgrgrgrOrg"/>
	<phase duration="4" state="OOgOOOggggrrryyrrggggrgrgrgrOrg"/>
	<phase duration="1" state="OOgOOOggggrrrrrrrggggrgrgrgrOrg"/>
	<phase duration="3" state="OOgOOOggggrrrrrrrggggrgrgrgrOgg"/>
	<phase duration="3" state="OOyOOOggggrrrrrrrggggrgrgrgrOgg"/>
	<phase duration="1" state="OOyOOOggggrrrrrrrygggryrgrgrOgg"/>
	<phase duration="2" state="OOrOOOggggrrrrrrrygggryrgrgrOgg"/>
	<phase duration="1" state="OOrOOOggggrrrrrrryyyyryggrgrOgg"/>
	<phase duration="2" state="OOrOOOggggrrrrrrrryyyrrggrgrOgg"/>
	<phase duration="1" state="OOrOOOggggrrrrrrrryyyrrggryrOgg"/>
	<phase duration="1" state="OOrOOOggggrrrrrrrrrrrrrggryrOgg"/>
	<phase duration="2" state="OOrOOOyyyyrrrrrggrrrrrrggrygOgg"/>
	<phase duration="2" state="OOrOOOyyyyrrrrrggrrrrrrggrrgOgg"/>
	<phase duration="1" state="OOrOOOrrrrrrrrrggrrrrrrggrrgOgg"/>
	<phase duration="1" state="OOrOOOrrrrrrrrrggrrrrrrggrrgOgy"/>
	<phase duration="2" state="OOrOOOrrrrrrrrrggrrrrrrgggrgOgy"/>
	<phase duration="1" state="OOrOOOrrrrrrrrrggrrrrgrgggrgOgy"/>
	<phase duration="31" state="OOrOOOrrrrrrrrrggrrrrgrgggrgOgr"/>
</tlLogic>
<tlLogic id="tls_137" type="static" programID="1" offset="0">
	<phase duration="30" state="rrrgg"/>
	<phase duration="1" state="rrrgy"/>
	<phase duration="3" state="rrryy"/>
	<phase duration="1" state="rrryr"/>
	<phase duration="1" state="rrrrr"/>
	<phase duration="48" state="gggrr"/>
	<phase duration="4" state="yyyrr"/>
	<phase duration="1" state="rrrrr"/>
	<phase duration="31" state="rrrgg"/>
</tlLogic>
<tlLogic id="tls_138" type="static" programID="1" offset="0">
	<phase duration="2" state="rOrrrOOr"/>
	<phase duration="19" state="rOrrrOOg"/>
	<phase duration="4" state="rOrrrOOy"/>
	<phase duration="1" state="rOrrrOOr"/>
	<phase duration="2" state="gOrrgOOr"/>
	<phase duration="57" state="gOgggOOr"/>
	<phase duration="2" state="yOggyOOr"/>
	<phase duration="2" state="yOyyyOOr"/>
	<phase duration="2" state="rOyyrOOr"/>
	<phase duration="29" state="rOrrrOOr"/>
</tlLogic>
<tlLogic id="tls_139" type="static" programID="1" offset="0">
	<phase duration="13" state="grrr"/>
	<phase duration="4" state="yrrr"/>
	<phase duration="1" state="rrrr"/>
	<phase duration="61" state="rggg"/>
	<phase duration="2" state="rggy"/>
	<phase duration="2" state="ryyy"/>
	<phase duration="2" state="ryyr"/>
	<phase duration="35" state="grrr"/>
</tlLogic>
<tlLogic id="tls_140" type="static" programID="1" offset="0">
	<phase duration="2" state="rOOOrrrgOrrrrrrrrOOOgrggr"/>
	<phase duration="1" state="rOOOrrrgOrrrrrrrrOOOgrggg"/>
	<phase duration="3" state="rOOOrrrgOrrrrrrrrOOOgrygg"/>
	<phase duration="1" state="rOOOrrrgOrrrrrgrrOOOgrygg"/>
	<phase duration="6" state="rOOOrrrgOrrrrrgrrOOOgrrgg"/>
	<phase duration="1" state="rOOOrrrgOrrrrrgrrOOOyrrgg"/>
	<phase duration="3" state="rOOOrrryOrrrrrgrrOOOyrrgg"/>
	<phase duration="1" state="rOOOrrryOrrrrrgrrOOOrrrgg"/>
	<phase duration="1" state="gOOOrrrrOrrrrrgrrOOOrrrgg"/>
	<phase duration="3" state="gOOOrrrrOrrrrryrrOOOrrrgg"/>
	<phase duration="1" state="gOOOrrrrOrrrrryggOOOrrrgg"/>
	<phase duration="1" state="gOOOrrrrOrrrrrrggOOOrrrgg"/>
	<phase duration="1" state="gOOOrrrrOrrrrrrggOOOrrggg"/>
	<phase duration="4" state="gOOOrrrrOrrrrrrggOOOrrggy"/>
	<phase duration="1" state="yOOOrrrrOrrrrrrggOOOrrggr"/>
	<phase duration="3" state="yOOOrrgrOrrrrrrggOOOrrgyr"/>
	<phase duration="1" state="rOOOgggrOrrrrrrggOOOrrgyr"/>
	<phase duration="8" state="rOOOgggrOrrrrrrggOOOgrgrr"/>
	<phase duration="4" state="rOOOggyrOrrrrrrggOOOgrgrr"/>
	<phase duration="1" state="rOOOggrrOgggggrggOOOgrgrr"/>
	<phase duration="35" state="rOOOggrrOgggggrggOOOgggrr"/>
	<phase duration="2" state="rOOOyyrrOgggggrggOOOgggrr"/>
	<phase duration="2" state="rOOOyyrrOgggggrggOOOgygrr"/>
	<phase duration="2" state="rOOOrrrrOyyyyyryyOOOgygrr"/>
	<phase duration="1" state="rOOOrrrrOyyyyyryyOOOgrgrr"/>
	<phase duration="1" state="rOOOrrrrOyyyyyryyOOOgrggr"/>
	<phase duration="30" state="rOOOrrrgOrrrrrrrrOOOgrggr"/>
</tlLogic>
<tlLogic id="tls_141" type="static" programID="1" offset="0">
	<phase duration="1" state="gOOOOggggggrrrrrrrgrgr"/>
	<phase duration="1" state="gOOOOggggggrrrrrrrgryr"/>
	<phase duration="3" state="gOOOOgggyyyrrrrrrrgryr"/>
	<phase duration="1" state="gOOOOgggyyyrrrrrrrgrrr"/>
	<phase duration="1" state="gOOOOyyyrrrrrrrrrrgrrr"/>
	<phase duration="1" state="gOOOOyyyrrrrrrrrrryrrr"/>
	<phase duration="1" state="gOOOOyyyrrrgggrrrryrrg"/>
	<phase duration="1" state="yOOOOyyyrrrgggrrrryrrg"/>
	<phase duration="1" state="yOOOOrrrrrrgggrrrryrrg"/>
	<phase duration="2" state="yOOOOrrrrrrgggrrrrrgrg"/>
	<phase duration="1" state="rOOOOrrrrrrgggrrrrrgrg"/>
	<phase duration="55" state="rOOOOrrrrrrgggggggrgrg"/>
	<phase duration="4" state="rOOOOrrrrrrgggggggryrg"/>
	<phase duration="3" state="rOOOOrrrrrrgggyyygrrrg"/>
	<phase duration="1" state="rOOOOrrrrrrgggyyyyrrrg"/>
	<phase duration="2" state="rOOOOrrrrrrgggrrryrrrg"/>
	<phase duration="1" state="rOOOOgggrrryyyrrryrrry"/>
	<phase duration="1" state="rOOOOgggrrryyyrrrrgrry"/>
	<phase duration="2" state="gOOOOgggrrryyyrrrrgrry"/>
	<phase duration="1" state="gOOOOgggrrrrrrrrrrgrrr"/>
	<phase duration="36" state="gOOOOggggggrrrrrrrgrgr"/>
</tlLogic>
<tlLogic id="tls_142" type="static" programID="1" offset="0">
	<phase duration="12" state="rrrrrgggggggggOOgg"/>
	<phase duration="4" state="rrrrryyyygggggOOgy"/>
	<phase duration="5" state="rrrrrrrrrgggggOOgr"/>
	<phase duration="35" state="ggrrrrrrrgggggOOgr"/>
	<phase duration="1" state="ggrrrrrrrgggggOOyr"/>
	<phase duration="3" state="yyrrrrrrryyyyyOOyr"/>
	<phase duration="1" state="yyrrrrrrryyyyyOOrr"/>
	<phase duration="1" state="rrrrrrrrrrrrrrOOrr"/>
	<phase duration="17" state="rrgggrrrrrrrrrOOrg"/>
	<phase duration="4" state="rryyyrrrrrrrrrOOrg"/>
	<phase duration="1" state="rrrrrrrrrrrrrrOOrg"/>
	<phase duration="1" state="rrrrrrrrrrrrrrOOgg"/>
	<phase duration="4" state="rrrrrggggrrrrrOOgg"/>
	<phase duration="31" state="rrrrrgggggggggOOgg"/>
</tlLogic>
<tlLogic id="tls_143" type="static" programID="1" offset="0">
	<phase duration="2" state="grrrrrrrggrrrrrrrg"/>
	<phase duration="3" state="yrrrrgggyyrrrrrrrg"/>
	<phase duration="1" state="yrrrrgggyyrrrrrrry"/>
	<phase duration="1" state="rrrrrgggrrrrrrrrry"/>
	<phase duration="2" state="rgggrgggrrrrrrgrry"/>
	<phase duration="1" state="rgggrgggrrrrrrgrrr"/>
	<phase duration="3" state="rgggggggrrrrrrgrrr"/>
	<phase duration="34" state="rgggggggrrgggggrrr"/>
	<phase duration="4" state="ryyyggggrrgggggrrr"/>
	<phase duration="1" state="rrrrggggrrgggggrrr"/>
	<phase duration="1" state="grrrggggrrgggggrrr"/>
	<phase duration="4" state="grrrggggrryyyygrrr"/>
	<phase duration="4" state="grrrggggrrrrrrgrrr"/>
	<phase duration="4" state="grrryyyyrrrrrrgrrr"/>
	<phase duration="2" state="grrrrrrrrrrrrrgrrr"/>
	<phase duration="1" state="grrrrrrrrrrrrryrrr"/>
	<phase duration="1" state="grrrrrrrrrrrrryggr"/>
	<phase duration="2" state="grrrrrrrrrrrrryggg"/>
	<phase duration="4" state="grrrrrrrrrrrrrrggg"/>
	<phase duration="6" state="grrrrrrrggrrrrrggg"/>
	<phase duration="4" state="grrrrrrrggrrrrrgyg"/>
	<phase duration="5" state="grrrrrrrggrrrrrgrg"/>
	<phase duration="4" state="grrrrrrrggrrrrryrg"/>
	<phase duration="26" state="grrrrrrrggrrrrrrrg"/>
</tlLogic>
<tlLogic id="tls_147" type="static" programID="1" offset="0">
	<phase duration="4" state="OOOOOOOOOOrrrggrrrOOOrOrrrgggg"/>
	<phase duration="12" state="OOOOOOOOOOrrgggrrrOOOrOrgrgggg"/>
	<phase duration="3" state="OOOOOOOOOOrrgyyrrrOOOrOryrgggg"/>
	<phase duration="1" state="OOOOOOOOOOrryyyrrrOOOrOryrgygg"/>
	<phase duration="2" state="OOOOOOOOOOrryrrrrrOOOrOrrrgygg"/>
	<phase duration="1" state="OOOOOOOOOOrryrrrrrOOOrOrrryygg"/>
	<phase duration="3" state="OOOOOOOOOOrrrrrrrrOOOrOrrryrgg"/>
	<phase duration="1" state="OOOOOOOOOOrrrrrrrrOOOrOgrrrrgg"/>
	<phase duration="7" state="OOOOOOOOOOrrrrrgggOOOrOgrrrrgg"/>
	<phase duration="4" state="OOOOOOOOOOrrrrryyyOOOrOgrrrrgg"/>
	<phase duration="1" state="OOOOOOOOOOrrrrrrrrOOOrOgrrrryy"/>
	<phase duration="1" state="OOOOOOOOOOrrrrrrrrOOOrOgrrgryy"/>
	<phase duration="1" state="OOOOOOOOOOrrrrrrrrOOOrOyrrgryy"/>
	<phase duration="1" state="OOOOOOOOOOrrrrrrrrOOOrOyrrggyy"/>
	<phase duration="2" state="OOOOOOOOOOrrrrrrrrOOOrOyrrggrr"/>
	<phase duration="1" state="OOOOOOOOOOrrrrrrrrOOOrOrrrggrr"/>
	<phase duration="13" state="OOOOOOOOOOrrrrrrrrOOOgOrrgggrr"/>
	<phase duration="4" state="OOOOOOOOOOrrrrrrrrOOOyOrryggrr"/>
	<phase duration="1" state="OOOOOOOOOOrrrrrrrrOOOrOrrrggrr"/>
	<phase duration="26" state="OOOOOOOOOOggrggrrrOOOrOrrrgggg"/>
	<phase duration="4" state="OOOOOOOOOOyyrggrrrOOOrOrrrgggg"/>
	<phase duration="27" state="OOOOOOOOOOrrrggrrrOOOrOrrrgggg"/>
</tlLogic>
<tlLogic id="tls_148" type="static" programID="1" offset="0">
	<phase duration="5" state="rrrrrOOOOgO"/>
	<phase duration="4" state="rrrrrOOOOyO"/>
	<phase duration="6" state="rrrrrOOOOrO"/>
	<phase duration="65" state="gggggOOOOrO"/>
	<phase duration="4" state="yyyyyOOOOrO"/>
	<phase duration="1" state="rrrrrOOOOrO"/>
	<phase duration="35" state="rrrrrOOOOgO"/>
</tlLogic>
<tlLogic id="tls_153" type="static" programID="1" offset="0">
	<phase duration="9" state="rrrrrggggggrrrrrrrrrrrggggggggggrrgrr"/>
	<phase duration="4" state="rrrrrggggggrrrrrrrrrrrgggggggggyrrgrr"/>
	<phase duration="11" state="rrrrrggggggrrrrrrrrrrrgggggggggrrrgrr"/>
	<phase duration="4" state="rrrrrggggggrrrrrrrrrrrgggggggggrrryrr"/>
	<phase duration="5" state="rrrrrggggggrrrrrrrrrrrgggggggggrrrrrr"/>
	<phase duration="4" state="rrrrrggggggrrrrrrrrrrryyyyyyyyyrrrrrr"/>
	<phase duration="2" state="rrrrrggggggrrrrrrrrrrrrrrrrrrrrrrrrrr"/>
	<phase duration="1" state="rrrrrggggggrrrrrrrrrrrrrrrrrrrrrrrrgr"/>
	<phase duration="11" state="rrrrrgggggggrrrrrrrrrrrrrrrrrrrrrrrgr"/>
	<phase duration="2" state="rrrrryyyyyyyrrrrrrrrrrrrrrrrrrrrrrrgr"/>
	<phase duration="2" state="rrrrryyyyyyyrrrrrrrrrrrrrrrrrrrrrgrgr"/>
	<phase duration="2" state="rrrrrrrrrrrrrrrrrrrrrrrrrrrrrrrrrgrgr"/>
	<phase duration="2" state="rrrrrrrrrrrrrrrrrrrrrrrrrrrrrrrrggrgr"/>
	<phase duration="5" state="rrrrrrrrrrrrrrrrrrrgggrrrrrrrrrrggrgg"/>
	<phase duration="4" state="rrrrrrrrrrrrrrrrrrryyyrrrrrrrrrrggrgg"/>
	<phase duration="3" state="rrrrrrrrrrrrrrrrrrrrrrrrrrrrrrrrgyrgg"/>
	<phase duration="1" state="rrrrrrrrrrrrrrrrrrrrrrrrrrrrrrrryyrgg"/>
	<phase duration="3" state="gggggrrrrrrrgggggggrrrrrrrrrrrrryrrgg"/>
	<phase duration="2" state="gggggrrrrrrrgggggggrrrrrrrrrrrrrrrrgg"/>
	<phase duration="2" state="yyyyyrrrrrrrgggggggrrrrrrrrrrrrrrrrgg"/>
	<phase duration="2" state="yyyyyrrrrrrrgggggggrrrrrrrrrrrrrrrryg"/>
	<phase duration="2" state="rrrrrrrrrrrryyyyyyyrrrrrrrrrrrrrrrryg"/>
	<phase duration="1" state="rrrrrrrrrrrryyyyyyyrrrrrrrrrrrrrrrrrg"/>
	<phase duration="1" state="rrrrrrrrrrrryyyyyyyrrrrrrrrrrrrrrrrry"/>
	<phase duration="3" state="rrrrrrrrrrrrrrrrrrrrrrrrrrrrrrrrrrrry"/>
	<phase duration="1" state="rrrrrrrrrrrrrrrrrrrrrrrrrrrrrrrrrrrrr"/>
	<phase duration="1" state="rrrrrrrrrrrrrrrrrrrrrrggggggggggrrgrr"/>
	<phase duration="30" state="rrrrrggggggrrrrrrrrrrrggggggggggrrgrr"/>
</tlLogic>
<tlLogic id="tls_154" type="static" programID="1" offset="0">
	<phase duration="5" state="rrrrrrrrrggggggrrrrgr"/>
	<phase duration="1" state="rrrrrrrrrggggggrrrrgg"/>
	<phase duration="29" state="rrgggggrrggggggrrrrgg"/>
	<phase duration="4" state="rrgggggrryyyyyyrrrrgg"/>
	<phase duration="7" state="rrgggggrrrrrrrrrrrrgg"/>
	<phase duration="4" state="rrgggggrrrrrrrrrrrryg"/>
	<phase duration="1" state="rrgggggrrrrrrrrrrrrrg"/>
	<phase duration="1" state="rrgggggrrrrrrrrrrrrry"/>
	<phase duration="2" state="rryyyyyrrrrrrrrrrrgry"/>
	<phase duration="1" state="rryyyyyggrrrrrrrrrgry"/>
	<phase duration="1" state="rryyyyyggrrrrrrrrrgrr"/>
	<phase duration="1" state="rrrrrrrggrrrrrrrrrgrr"/>
	<phase duration="3" state="rrrrrrrggrrrrrrrrggrr"/>
	<phase duration="3" state="ggrrrrrggrrrrrrrrggrr"/>
	<phase duration="10" state="ggrrrrrggrrrrrrggggrr"/>
	<phase duration="2" state="ggrrrrrggrrrrrrgggyrr"/>
	<phase duration="2" state="ggrrrrryyrrrrrrgggyrr"/>
	<phase duration="2" state="ggrrrrryyrrrrrrgggrrr"/>
	<phase duration="1" state="ggrrrrrrrrrrrrrgggrrr"/>
	<phase duration="1" state="ggrrrrrrrrrrrrrgggrgr"/>
	<phase duration="2" state="ggrrrrrrrgggggggggrgr"/>
	<phase duration="4" state="yyrrrrrrrgggggggggrgr"/>
	<phase duration="1" state="rrrrrrrrrggggggggyrgr"/>
	<phase duration="3" state="rrrrrrrrrggggggyyyrgr"/>
	<phase duration="1" state="rrrrrrrrrggggggyyrrgr"/>
	<phase duration="28" state="rrrrrrrrrggggggrrrrgr"/>
</tlLogic>
<tlLogic id="tls_155" type="static" programID="1" offset="0">
	<phase duration="2" state="ggrrrrrrrgggggrgrg"/>
	<phase duration="2" state="yyrrrrrrrgggggrgrg"/>
	<phase duration="2" state="yyrrrrrrrgggggrgry"/>
	<phase duration="1" state="rrrrrrrrrgggggrgry"/>
	<phase duration="1" state="rrrrrrrrrgggggggry"/>
	<phase duration="3" state="rrrrrrrrrgggggggrr"/>
	<phase duration="28" state="rrgggggrrgggggggrr"/>
	<phase duration="4" state="rrgggggrryyyyygyrr"/>
	<phase duration="2" state="rrgggggrrrrrrrgrrr"/>
	<phase duration="19" state="rrgggggggrrrrrgrgr"/>
	<phase duration="2" state="rryyyyyggrrrrryrgr"/>
	<phase duration="1" state="rryyyyyggrrrrryryr"/>
	<phase duration="1" state="rryyyyyyyrrrrryryr"/>
	<phase duration="2" state="rrrrrrryyrrrrrrryr"/>
	<phase duration="1" state="rrrrrrryyrrrrrrrrg"/>
	<phase duration="3" state="ggrrrrrrrrrrrrrrrg"/>
	<phase duration="1" state="ggrrrrrrrrrrrrrgrg"/>
	<phase duration="45" state="ggrrrrrrrgggggrgrg"/>
</tlLogic>
<tlLogic id="tls_156" type="static" programID="1" offset="0">
	<phase duration="8" state="rrrrrrrgggggrgrgrg"/>
	<phase duration="2" state="rrrrrrrgggyyryrgrg"/>
	<phase duration="2" state="rrrrrrrgggyyryrgry"/>
	<phase duration="2" state="rrrrrrrgggrrrrrgry"/>
	<phase duration="3" state="rrrrrrrgggrrrrrgrr"/>
	<phase duration="17" state="gggggrrgggrrgrrgrr"/>
	<phase duration="1" state="gggggrryyyrrgrrgrr"/>
	<phase duration="3" state="gggggrryyyrrgrryrr"/>
	<phase duration="1" state="gggggrrrrrrrgrryrr"/>
	<phase duration="2" state="gggggrrrrrrrgrrrgr"/>
	<phase duration="1" state="gggggrrrrrrrgrgrgr"/>
	<phase duration="17" state="gggggggrrrrrgrgrgr"/>
	<phase duration="1" state="gggggggrrrrrgrgryr"/>
	<phase duration="2" state="gggggyyrrrrrgrgryr"/>
	<phase duration="1" state="gggggyyrrrrrgryryr"/>
	<phase duration="1" state="gggggyyrrrrrgryrrr"/>
	<phase duration="2" state="gggggrrrrrrrgryrrr"/>
	<phase duration="2" state="gggggrrrrrrrgrrrrr"/>
	<phase duration="1" state="gggggrrrrrrrgrrgrr"/>
	<phase duration="2" state="gggggrrgggrrgrrgrr"/>
	<phase duration="4" state="yyyyyrrgggrryrrgrr"/>
	<phase duration="1" state="rrrrrrrgggrrrrrgrr"/>
	<phase duration="2" state="rrrrrrrgggrrrgrgrr"/>
	<phase duration="42" state="rrrrrrrgggggrgrgrg"/>
</tlLogic>
<tlLogic id="tls_157" type="static" programID="1" offset="0">
	<phase duration="1" state="rrrrrrrrrrrrrrrrrrrrrg"/>
	<phase duration="2" state="rrrrrrrrrrrrrrrrrrrrgg"/>
	<phase duration="12" state="gggrrrrrgggrrrrrrrrrgg"/>
	<phase duration="3" state="gggrrrrrgggrrrrrrrrrgy"/>
	<phase duration="1" state="yyyrrrrrgggrrrrrrrrrgy"/>
	<phase duration="3" state="yyyrrrrrgggrrrrrrrrrgr"/>
	<phase duration="1" state="rrrrrrrrgggrrrrrrrrrgr"/>
	<phase duration="1" state="rrrrrrrrgggrrrrrrgrrgr"/>
	<phase duration="2" state="rrrggggggggrrrrrrgrrgr"/>
	<phase duration="4" state="rrrgggggyyyrrrrrrgrrgr"/>
	<phase duration="1" state="rrrgggggrrrrrrrrrgrggr"/>
	<phase duration="25" state="rrrgggggrrrrrrrrrggggr"/>
	<phase duration="4" state="rrrgggggrrrrrrrrrgggyr"/>
	<phase duration="3" state="rrrgggggrrrrrrrrrgggrr"/>
	<phase duration="14" state="rrrgggggrrrgggggggggrr"/>
	<phase duration="4" state="rrryyyyyrrrgggggggggrr"/>
	<phase duration="3" state="rrrrrrrrrrrgggggggggrr"/>
	<phase duration="1" state="rrrrrrrrrrrgggggggggrg"/>
	<phase duration="1" state="rrrrrrrrrrrgggggggygrg"/>
	<phase duration="1" state="rrrrrrrrrrryyyyyygygrg"/>
	<phase duration="2" state="rrrrrrrrrrryyyyyyyyyrg"/>
	<phase duration="1" state="rrrrrrrrrrryyyyyyyryrg"/>
	<phase duration="1" state="rrrrrrrrrrrrrrrrryryrg"/>
	<phase duration="29" state="rrrrrrrrrrrrrrrrrrrrrg"/>
</tlLogic>
<tlLogic id="tls_159" type="static" programID="1" offset="0">
	<phase duration="10" state="rrrrggggrrrrrrrgggrg"/>
	<phase duration="4" state="rrrrggggrrrrrrrggyrg"/>
	<phase duration="1" state="rrrrggggrrrrrrrygrrg"/>
	<phase duration="1" state="rrrrggggrrrrrrryyrrg"/>
	<phase duration="2" state="rrrryyyyrrrrrrryyrrg"/>
	<phase duration="1" state="rrrryyyyrrrrrrrryrrg"/>
	<phase duration="1" state="rrrryyyyrrrrrrrrrrry"/>
	<phase duration="3" state="rrrrrrrrrrrrrrrrrrry"/>
	<phase duration="1" state="rrrrrrrrrrrrrrrrrrrr"/>
	<phase duration="4" state="ggggrrrrrrrrrrrrrrrr"/>
	<phase duration="2" state="ggggrrrrrrrrrrrrrrgr"/>
	<phase duration="18" state="ggggrrrrggrrrrrrrrgr"/>
	<phase duration="4" state="gggyrrrrggrrrrrrrrgr"/>
	<phase duration="4" state="gggrrrrryyrrrrrrrrgr"/>
	<phase duration="1" state="gggrrrrrrrrrrrrrrrgr"/>
	<phase duration="22" state="gggrrrrrrrgggggrrrgg"/>
	<phase duration="2" state="gggrrrrrrrgggggrrryg"/>
	<phase duration="2" state="gggrrrrrrryyyyyrrryg"/>
	<phase duration="2" state="yyyrrrrrrryyyyyrrrrg"/>
	<phase duration="2" state="yyyrrrrrrrrrrrrrrrrg"/>
	<phase duration="1" state="rrrrrrrrrrrrrrrgrrrg"/>
	<phase duration="1" state="rrrrggggrrrrrrrggrrg"/>
	<phase duration="31" state="rrrrggggrrrrrrrgggrg"/>
</tlLogic>
<tlLogic id="tls_160" type="static" programID="1" offset="0">
	<phase duration="4" state="rrrrrrrrrrrgrrrrgrggrrg"/>
	<phase duration="4" state="rrrrrrrrrrrgrrrrgrgyrrg"/>
	<phase duration="3" state="rrrrrrrrrrrgrrrrgrgrrrg"/>
	<phase duration="1" state="rrrrrrrrrrryrrrrgrgrrrg"/>
	<phase duration="2" state="rrrrrrrrrrryrrrrgrgrrgg"/>
	<phase duration="1" state="rrrrrrrrrrryrrrryrgrrgy"/>
	<phase duration="1" state="rrrrrrrrrrrrrrrryryrrgy"/>
	<phase duration="2" state="grrrrrrrrrrrrrrryryrggy"/>
	<phase duration="1" state="grrrrrrrrrrrrrrrrryrggr"/>
	<phase duration="7" state="grrrrgrrrrrrggggrrrrggr"/>
	<phase duration="2" state="grrrryrrrrrrggggrrrrggr"/>
	<phase duration="2" state="yrrrryrrrrrrggggrrrrggr"/>
	<phase duration="2" state="yrrrrrrrrrrrggggrrrrggr"/>
	<phase duration="3" state="rrrrrrrrrrrrggggrrrrggr"/>
	<phase duration="1" state="rrrrrrrrrrrryyyyrrrrgyr"/>
	<phase duration="3" state="rrrrrrrrrrrryyyyrrrryyr"/>
	<phase duration="1" state="rrrrrrrrrrrrrrrrrrrryrr"/>
	<phase duration="1" state="rggggrrrrrrrrrrrrrrrrrr"/>
	<phase duration="4" state="rggggrrrrrrrrrrrggrrrrg"/>
	<phase duration="14" state="rggggrgggggrrrrrggrrrrg"/>
	<phase duration="4" state="rggggryyyyyrrrrrggrrrrg"/>
	<phase duration="15" state="rggggrrrrrrrrrrrggrrrrg"/>
	<phase duration="2" state="ryyyyrrrrrrrrrrrggrrrrg"/>
	<phase duration="1" state="ryyyyrrrrrrrrrrrggrgrrg"/>
	<phase duration="1" state="ryyyyrrrrrrrrrrrgyrgrrg"/>
	<phase duration="1" state="rrrrrrrrrrrrrrrrgyrgrrg"/>
	<phase duration="1" state="rrrrrrrrrrrgrrrrgyrgrrg"/>
	<phase duration="1" state="rrrrrrrrrrrgrrrrgyggrrg"/>
	<phase duration="35" state="rrrrrrrrrrrgrrrrgrggrrg"/>
</tlLogic>
<tlLogic id="tls_161" type="static" programID="1" offset="0">
	<phase duration="3" state="rrrrrrrrrrrrrrr"/>
	<phase duration="9" state="rrrrrrgggggrrgg"/>
	<phase duration="2" state="rrrrrrggggggrgg"/>
	<phase duration="4" state="rrrrrrgggyygrgy"/>
	<phase duration="1" state="rrrrrrgggrrgrgr"/>