<?xml version="1.0" encoding="UTF-8"?>

<!-- generated on 2023-07-20 20:23:22.261519 by randomTrips.py v1_16_0+1491-7f1fb8fd7bb
<configuration>
    <begin value="21600.0"/>
    <end value="22200.0"/>
    <net-file value="/Users/jenniferhahn/Documents/GitHub/urban_mobility_simulation/models/20230718_SUMO_MA/osm.net.xml"/>
    <output-trip-file value="/Users/jenniferhahn/Documents/GitHub/urban_mobility_simulation/models/20230718_SUMO_MA/bicycle_routes.xml"/>
    <prefix value="bike"/>
    <validate value="True"/>
    <vehicle-class value="bicycle"/>
</configuration>
-->

<!-- generated on 2023-07-20 20:23:21 by Eclipse SUMO duarouter Version 1.16.0
<configuration xmlns:xsi="http://www.w3.org/2001/XMLSchema-instance" xsi:noNamespaceSchemaLocation="http://sumo.dlr.de/xsd/duarouterConfiguration.xsd">

    <input>
        <net-file value="/Users/jenniferhahn/Documents/GitHub/urban_mobility_simulation/models/20230718_SUMO_MA/osm.net.xml"/>
        <route-files value="/Users/jenniferhahn/Documents/GitHub/urban_mobility_simulation/models/20230718_SUMO_MA/bicycle_routes.xml"/>
    </input>

    <output>
        <output-file value="/Users/jenniferhahn/Documents/GitHub/urban_mobility_simulation/models/20230718_SUMO_MA/bicycle_routes.xml.tmp"/>
        <alternatives-output value="NUL"/>
        <write-trips value="true"/>
    </output>

    <time>
        <begin value="21600.0"/>
        <end value="22200.0"/>
    </time>

    <report>
        <no-warnings value="true"/>
        <ignore-errors value="true"/>
        <no-step-log value="true"/>
    </report>

</configuration>
-->

<routes xmlns:xsi="http://www.w3.org/2001/XMLSchema-instance" xsi:noNamespaceSchemaLocation="http://sumo.dlr.de/xsd/routes_file.xsd">
    <vType id="bike_bicycle" vClass="bicycle"/>
    <trip id="bike0" type="bike_bicycle" depart="21600.00" from="255389621#0" to="-150393268#2"/>
    <trip id="bike1" type="bike_bicycle" depart="21601.00" from="108404027#1" to="-43578399#0"/>
    <trip id="bike2" type="bike_bicycle" depart="21602.00" from="320202776" to="270655641"/>
    <trip id="bike3" type="bike_bicycle" depart="21603.00" from="460396653" to="-215971171#0"/>
    <trip id="bike4" type="bike_bicycle" depart="21604.00" from="175580620#0" to="-150393270#8"/>
    <trip id="bike5" type="bike_bicycle" depart="21605.00" from="-40103024" to="215971173#0"/>
    <trip id="bike6" type="bike_bicycle" depart="21606.00" from="-150393270#1" to="-364071761#1"/>
    <trip id="bike7" type="bike_bicycle" depart="21607.00" from="25873469#9" to="23055032"/>
    <trip id="bike8" type="bike_bicycle" depart="21608.00" from="-40586130#1" to="24549635#0"/>
    <trip id="bike9" type="bike_bicycle" depart="21609.00" from="377853509#0" to="-112796201#0"/>
    <trip id="bike10" type="bike_bicycle" depart="21610.00" from="376846888" to="27870084#2"/>
    <trip id="bike11" type="bike_bicycle" depart="21611.00" from="150549253#4.62.25" to="-27261757#3"/>
    <trip id="bike12" type="bike_bicycle" depart="21612.00" from="85287421#1" to="150549242#1"/>
    <trip id="bike13" type="bike_bicycle" depart="21613.00" from="-216879574#5" to="-218025840"/>
    <trip id="bike14" type="bike_bicycle" depart="21614.00" from="40586130#3" to="24685084#0"/>
    <trip id="bike15" type="bike_bicycle" depart="21615.00" from="376865290#1" to="315426062"/>
    <trip id="bike16" type="bike_bicycle" depart="21616.00" from="227062822#1" to="948937423"/>
    <trip id="bike17" type="bike_bicycle" depart="21617.00" from="155860727#0" to="23137793#3"/>
    <trip id="bike18" type="bike_bicycle" depart="21618.00" from="39649663" to="251816561"/>
    <trip id="bike19" type="bike_bicycle" depart="21619.00" from="431557289#1" to="24439729#1"/>
    <trip id="bike20" type="bike_bicycle" depart="21620.00" from="28646388#3" to="-150857989#1"/>
    <trip id="bike21" type="bike_bicycle" depart="21621.00" from="-442789059" to="121805100"/>
    <trip id="bike22" type="bike_bicycle" depart="21622.00" from="-210362484" to="-53040718#8"/>
    <trip id="bike23" type="bike_bicycle" depart="21623.00" from="-219005867#1" to="1085759979#0"/>
    <trip id="bike24" type="bike_bicycle" depart="21624.00" from="253536519" to="150853632"/>
    <trip id="bike25" type="bike_bicycle" depart="21625.00" from="150893550#1" to="-377853509#0"/>
    <trip id="bike26" type="bike_bicycle" depart="21626.00" from="107085648#3" to="638123367#2"/>
    <trip id="bike28" type="bike_bicycle" depart="21628.00" from="-30845552#0" to="315426060#3"/>
    <trip id="bike31" type="bike_bicycle" depart="21631.00" from="23263249#2" to="270684579"/>
    <trip id="bike32" type="bike_bicycle" depart="21632.00" from="404190177#1" to="360248191"/>
    <trip id="bike33" type="bike_bicycle" depart="21633.00" from="-4492383#0" to="-150546877#2"/>
    <trip id="bike34" type="bike_bicycle" depart="21634.00" from="149951202#4" to="107085654#1"/>
    <trip id="bike35" type="bike_bicycle" depart="21635.00" from="-38139888#1" to="739924925"/>
    <trip id="bike36" type="bike_bicycle" depart="21636.00" from="440604787#1" to="149951202#3"/>
    <trip id="bike37" type="bike_bicycle" depart="21637.00" from="266188220#0" to="165343935"/>
    <trip id="bike38" type="bike_bicycle" depart="21638.00" from="53175067#1" to="190340310#1"/>
    <trip id="bike39" type="bike_bicycle" depart="21639.00" from="107085647#0" to="-7980450#1"/>
    <trip id="bike40" type="bike_bicycle" depart="21640.00" from="235391298" to="107085643"/>
    <trip id="bike43" type="bike_bicycle" depart="21643.00" from="E8" to="216146979"/>
    <trip id="bike44" type="bike_bicycle" depart="21644.00" from="-216128744#1" to="-150857994#2"/>
    <trip id="bike45" type="bike_bicycle" depart="21645.00" from="-23055466#4" to="253488954#0"/>
    <trip id="bike46" type="bike_bicycle" depart="21646.00" from="366073462#1" to="175588575#0"/>
    <trip id="bike48" type="bike_bicycle" depart="21648.00" from="E4_y" to="226872065#9"/>
    <trip id="bike49" type="bike_bicycle" depart="21649.00" from="941558922" to="429104325#0"/>
    <trip id="bike50" type="bike_bicycle" depart="21650.00" from="-131229614#0" to="306029065#4"/>
    <trip id="bike51" type="bike_bicycle" depart="21651.00" from="270684568#3" to="227205258#1"/>
    <trip id="bike52" type="bike_bicycle" depart="21652.00" from="107085648#2" to="255389622#0"/>
    <trip id="bike54" type="bike_bicycle" depart="21654.00" from="189769943#0" to="8067185#1"/>
    <trip id="bike55" type="bike_bicycle" depart="21655.00" from="4404116#2" to="107085646#0"/>
    <trip id="bike56" type="bike_bicycle" depart="21656.00" from="211994459#0" to="-320252634#12"/>
    <trip id="bike57" type="bike_bicycle" depart="21657.00" from="53175060#1" to="4403852#4"/>
    <trip id="bike59" type="bike_bicycle" depart="21659.00" from="249461334#4" to="-27245673#9"/>
    <trip id="bike60" type="bike_bicycle" depart="21660.00" from="35834155#0" to="22763251#1"/>
    <trip id="bike61" type="bike_bicycle" depart="21661.00" from="360248206#2" to="227062813#2"/>
    <trip id="bike62" type="bike_bicycle" depart="21662.00" from="-102486913#0" to="150393270#12"/>
    <trip id="bike63" type="bike_bicycle" depart="21663.00" from="-149951202#4" to="561882213#0"/>
    <trip id="bike64" type="bike_bicycle" depart="21664.00" from="442749531" to="39649668#1"/>
    <trip id="bike65" type="bike_bicycle" depart="21665.00" from="148357182#8" to="-175558914#1"/>
    <trip id="bike66" type="bike_bicycle" depart="21666.00" from="442545004#1" to="779043553#2"/>
    <trip id="bike67" type="bike_bicycle" depart="21667.00" from="-215925850#1" to="206306024"/>
    <trip id="bike68" type="bike_bicycle" depart="21668.00" from="-205103380#3" to="356166740#5"/>
    <trip id="bike69" type="bike_bicycle" depart="21669.00" from="358953096" to="-24608191#1"/>
    <trip id="bike70" type="bike_bicycle" depart="21670.00" from="19354464#0" to="231285503#1"/>
    <trip id="bike71" type="bike_bicycle" depart="21671.00" from="107085647#1" to="4404113#5"/>
    <trip id="bike73" type="bike_bicycle" depart="21673.00" from="22763251#0" to="315426064"/>
    <trip id="bike74" type="bike_bicycle" depart="21674.00" from="-364080659#1" to="149942614#0"/>
    <trip id="bike76" type="bike_bicycle" depart="21676.00" from="184227241#1" to="218271806#1"/>
    <trip id="bike77" type="bike_bicycle" depart="21677.00" from="-24532428#1" to="-4400844#0"/>
    <trip id="bike78" type="bike_bicycle" depart="21678.00" from="150549252#2" to="24549476#0"/>
    <trip id="bike79" type="bike_bicycle" depart="21679.00" from="-46961543" to="-415123460#0"/>
    <trip id="bike80" type="bike_bicycle" depart="21680.00" from="-205759810#0" to="253488997#1"/>
    <trip id="bike81" type="bike_bicycle" depart="21681.00" from="-4492383#0" to="5073592#0"/>
    <trip id="bike82" type="bike_bicycle" depart="21682.00" from="42760136" to="-205759810#1"/>
    <trip id="bike83" type="bike_bicycle" depart="21683.00" from="-53175159#2" to="269017594.14"/>
    <trip id="bike84" type="bike_bicycle" depart="21684.00" from="-39649661" to="-24620501#1"/>
    <trip id="bike85" type="bike_bicycle" depart="21685.00" from="630452844" to="240321454#2"/>
    <trip id="bike86" type="bike_bicycle" depart="21686.00" from="192398367#0" to="364080659#0"/>
    <trip id="bike87" type="bike_bicycle" depart="21687.00" from="376865390#1" to="-356166740#0"/>
    <trip id="bike88" type="bike_bicycle" depart="21688.00" from="-218025840" to="183413425"/>
    <trip id="bike89" type="bike_bicycle" depart="21689.00" from="178376520" to="190458064#5"/>
    <trip id="bike91" type="bike_bicycle" depart="21691.00" from="999614640" to="-218303425"/>
    <trip id="bike93" type="bike_bicycle" depart="21693.00" from="431557289#1" to="-922053733#1"/>
    <trip id="bike94" type="bike_bicycle" depart="21694.00" from="-35014374#2" to="189764716#0"/>
    <trip id="bike95" type="bike_bicycle" depart="21695.00" from="175580620#0" to="1085759979#3"/>
    <trip id="bike97" type="bike_bicycle" depart="21697.00" from="187060049#1" to="431557289#1"/>
    <trip id="bike98" type="bike_bicycle" depart="21698.00" from="231285503#1" to="-151785743#0"/>
    <trip id="bike99" type="bike_bicycle" depart="21699.00" from="EMk2" to="40104609#1"/>
    <trip id="bike100" type="bike_bicycle" depart="21700.00" from="93785434" to="56185655#1"/>
    <trip id="bike101" type="bike_bicycle" depart="21701.00" from="4082946#1" to="-305829909#0"/>
    <trip id="bike102" type="bike_bicycle" depart="21702.00" from="205880175#1" to="-39649662#1"/>
    <trip id="bike104" type="bike_bicycle" depart="21704.00" from="155860727#1" to="E0_vu3"/>
    <trip id="bike105" type="bike_bicycle" depart="21705.00" from="107085647#1" to="364071765#0"/>
    <trip id="bike106" type="bike_bicycle" depart="21706.00" from="189776524" to="178376520"/>
    <trip id="bike109" type="bike_bicycle" depart="21709.00" from="-27261757#0" to="129556174#0"/>
    <trip id="bike110" type="bike_bicycle" depart="21710.00" from="93785423" to="24470198"/>
    <trip id="bike111" type="bike_bicycle" depart="21711.00" from="229619678#0" to="33083417"/>
    <trip id="bike112" type="bike_bicycle" depart="21712.00" from="-171793097#0" to="24533443#1"/>
    <trip id="bike113" type="bike_bicycle" depart="21713.00" from="215925850#2" to="41270994#2"/>
    <trip id="bike114" type="bike_bicycle" depart="21714.00" from="-27315344#1" to="890797552#1"/>
    <trip id="bike115" type="bike_bicycle" depart="21715.00" from="-210441943" to="-334457598#0"/>
    <trip id="bike117" type="bike_bicycle" depart="21717.00" from="-53175069#0" to="-24532348#0"/>
    <trip id="bike118" type="bike_bicycle" depart="21718.00" from="4492383#1" to="-778982229#0"/>
    <trip id="bike120" type="bike_bicycle" depart="21720.00" from="175558914#2" to="24533443#0"/>
    <trip id="bike121" type="bike_bicycle" depart="21721.00" from="219005868#1" to="628505596"/>
    <trip id="bike123" type="bike_bicycle" depart="21723.00" from="-53175159#4" to="165343935"/>
    <trip id="bike124" type="bike_bicycle" depart="21724.00" from="269040899.42" to="134394675#0"/>
    <trip id="bike125" type="bike_bicycle" depart="21725.00" from="149951202#6" to="334457596"/>
    <trip id="bike126" type="bike_bicycle" depart="21726.00" from="-205880175#2" to="190340309"/>
    <trip id="bike127" type="bike_bicycle" depart="21727.00" from="E9" to="E5"/>
    <trip id="bike128" type="bike_bicycle" depart="21728.00" from="-206576555#1" to="-39649662#0"/>
    <trip id="bike129" type="bike_bicycle" depart="21729.00" from="107085647#1" to="626345991"/>
    <trip id="bike130" type="bike_bicycle" depart="21730.00" from="4432606#12" to="4432605"/>
    <trip id="bike132" type="bike_bicycle" depart="21732.00" from="40103022" to="28646388#1"/>
    <trip id="bike133" type="bike_bicycle" depart="21733.00" from="251106111#0" to="E11_y"/>
    <trip id="bike134" type="bike_bicycle" depart="21734.00" from="26340368#1" to="-112796201#4"/>
    <trip id="bike135" type="bike_bicycle" depart="21735.00" from="385966809#2" to="134394171#3"/>
    <trip id="bike137" type="bike_bicycle" depart="21737.00" from="-24819999#2" to="-240348395#1"/>
    <trip id="bike139" type="bike_bicycle" depart="21739.00" from="107085664#0" to="24819999#2"/>
    <trip id="bike140" type="bike_bicycle" depart="21740.00" from="305829909#1" to="-366073485#1"/>
    <trip id="bike141" type="bike_bicycle" depart="21741.00" from="253489009#1" to="107085647#0"/>
    <trip id="bike142" type="bike_bicycle" depart="21742.00" from="206833547#0" to="5073592#0"/>
    <trip id="bike143" type="bike_bicycle" depart="21743.00" from="40584784" to="-216879574#4"/>
    <trip id="bike144" type="bike_bicycle" depart="21744.00" from="178376520" to="108404032#1"/>
    <trip id="bike146" type="bike_bicycle" depart="21746.00" from="254235290#1" to="1064398602#0"/>
    <trip id="bike147" type="bike_bicycle" depart="21747.00" from="320252634#12" to="23137790#2"/>
    <trip id="bike148" type="bike_bicycle" depart="21748.00" from="181503326#1" to="-127606907#1"/>
    <trip id="bike149" type="bike_bicycle" depart="21749.00" from="-208424711#0" to="4432606#7"/>
    <trip id="bike150" type="bike_bicycle" depart="21750.00" from="502060955#0" to="23055277#1"/>
    <trip id="bike151" type="bike_bicycle" depart="21751.00" from="40103023#1" to="24532431#1"/>
    <trip id="bike152" type="bike_bicycle" depart="21752.00" from="-270684568#7" to="-245941530#3"/>
    <trip id="bike153" type="bike_bicycle" depart="21753.00" from="148357183#1" to="47214333#2"/>
    <trip id="bike154" type="bike_bicycle" depart="21754.00" from="366073475#6" to="429104325#0"/>
    <trip id="bike155" type="bike_bicycle" depart="21755.00" from="47214333#2" to="-37825125#6"/>
    <trip id="bike156" type="bike_bicycle" depart="21756.00" from="-922053733#1" to="-220677168#3"/>
    <trip id="bike157" type="bike_bicycle" depart="21757.00" from="360248211#2" to="4432610#1"/>
    <trip id="bike158" type="bike_bicycle" depart="21758.00" from="165849627#8" to="251816568"/>
    <trip id="bike159" type="bike_bicycle" depart="21759.00" from="-27245998" to="57381284"/>
    <trip id="bike160" type="bike_bicycle" depart="21760.00" from="434327503" to="95170292#1"/>
    <trip id="bike161" type="bike_bicycle" depart="21761.00" from="377905809#0" to="4432606#2"/>
    <trip id="bike162" type="bike_bicycle" depart="21762.00" from="-150393267#9" to="320207734"/>
    <trip id="bike163" type="bike_bicycle" depart="21763.00" from="150546875" to="584126367#0"/>
    <trip id="bike164" type="bike_bicycle" depart="21764.00" from="371573876#2" to="433018233#1"/>
    <trip id="bike165" type="bike_bicycle" depart="21765.00" from="377905809#0" to="107085650"/>
    <trip id="bike166" type="bike_bicycle" depart="21766.00" from="364080662#0" to="-23055404#2"/>
    <trip id="bike168" type="bike_bicycle" depart="21768.00" from="-415123460#3" to="385966809#0"/>
    <trip id="bike169" type="bike_bicycle" depart="21769.00" from="190340312.8" to="148357182#11"/>
    <trip id="bike170" type="bike_bicycle" depart="21770.00" from="366073475#4" to="-4492379#1"/>
    <trip id="bike171" type="bike_bicycle" depart="21771.00" from="-150393267#5" to="-35834157#2"/>
    <trip id="bike173" type="bike_bicycle" depart="21773.00" from="922053740" to="1085759981#0"/>
    <trip id="bike175" type="bike_bicycle" depart="21775.00" from="97301282#0" to="227062822#2"/>
    <trip id="bike176" type="bike_bicycle" depart="21776.00" from="69423517" to="-240348395#0"/>
    <trip id="bike177" type="bike_bicycle" depart="21777.00" from="93785463#0.22" to="-320252634#12"/>
    <trip id="bike178" type="bike_bicycle" depart="21778.00" from="898416657#0" to="107085648#1"/>
    <trip id="bike180" type="bike_bicycle" depart="21780.00" from="315426060#0" to="149951202#0"/>
    <trip id="bike181" type="bike_bicycle" depart="21781.00" from="24909020#1" to="216879574#5"/>
    <trip id="bike183" type="bike_bicycle" depart="21783.00" from="-999862407" to="29020152"/>
    <trip id="bike184" type="bike_bicycle" depart="21784.00" from="-1055826509" to="56185651#3"/>
    <trip id="bike185" type="bike_bicycle" depart="21785.00" from="227205268#1" to="306029065#0"/>
    <trip id="bike186" type="bike_bicycle" depart="21786.00" from="320252634#3" to="269017614"/>
    <trip id="bike189" type="bike_bicycle" depart="21789.00" from="149951200#3" to="40586130#3"/>
    <trip id="bike190" type="bike_bicycle" depart="21790.00" from="306029065#1" to="134394675#2"/>
    <trip id="bike191" type="bike_bicycle" depart="21791.00" from="148359950#0" to="171453050"/>
    <trip id="bike192" type="bike_bicycle" depart="21792.00" from="165823635" to="127608718#1"/>
    <trip id="bike193" type="bike_bicycle" depart="21793.00" from="-245941530#2" to="175558914#9"/>
    <trip id="bike194" type="bike_bicycle" depart="21794.00" from="69852238" to="270655645#1"/>
    <trip id="bike196" type="bike_bicycle" depart="21796.00" from="134394675#0" to="23055466#4"/>
    <trip id="bike197" type="bike_bicycle" depart="21797.00" from="-102486913#0" to="115738329#0.6"/>
    <trip id="bike198" type="bike_bicycle" depart="21798.00" from="182489957#1" to="24532277#1"/>
    <trip id="bike200" type="bike_bicycle" depart="21800.00" from="187057791#1" to="-39649662#1"/>
    <trip id="bike201" type="bike_bicycle" depart="21801.00" from="192428988#0" to="500261497"/>
    <trip id="bike202" type="bike_bicycle" depart="21802.00" from="366073475#6" to="-306032456"/>
    <trip id="bike203" type="bike_bicycle" depart="21803.00" from="-214586680" to="218025853#1"/>
    <trip id="bike204" type="bike_bicycle" depart="21804.00" from="253489002#2" to="150547351#2"/>
    <trip id="bike205" type="bike_bicycle" depart="21805.00" from="385970249#1" to="33083988#1"/>
    <trip id="bike206" type="bike_bicycle" depart="21806.00" from="269040907#0" to="-43866170#1"/>
    <trip id="bike207" type="bike_bicycle" depart="21807.00" from="-364071761#1" to="-150393267#9"/>
    <trip id="bike208" type="bike_bicycle" depart="21808.00" from="-694345941#2" to="19354464#1"/>
    <trip id="bike209" type="bike_bicycle" depart="21809.00" from="4084169" to="-206576555#1"/>
    <trip id="bike210" type="bike_bicycle" depart="21810.00" from="174379434#3" to="253488980"/>
    <trip id="bike211" type="bike_bicycle" depart="21811.00" from="-35948955#1" to="27429642#0"/>
    <trip id="bike212" type="bike_bicycle" depart="21812.00" from="208426932#1" to="-718155368#1"/>
    <trip id="bike213" type="bike_bicycle" depart="21813.00" from="266188220#2" to="-1101640525#1"/>
    <trip id="bike214" type="bike_bicycle" depart="21814.00" from="33083988#0" to="359726683#1"/>
    <trip id="bike216" type="bike_bicycle" depart="21816.00" from="-319999605#0" to="8601421#1"/>
    <trip id="bike217" type="bike_bicycle" depart="21817.00" from="218271806#1" to="-150896688#4"/>
    <trip id="bike218" type="bike_bicycle" depart="21818.00" from="-922053733#0" to="4082065#0"/>
    <trip id="bike219" type="bike_bicycle" depart="21819.00" from="189899508" to="371573876#1"/>
    <trip id="bike220" type="bike_bicycle" depart="21820.00" from="269017588#4" to="E14_y"/>
    <trip id="bike221" type="bike_bicycle" depart="21821.00" from="245941530#1" to="7980431#1"/>
    <trip id="bike223" type="bike_bicycle" depart="21823.00" from="306029064#0" to="215971172#0"/>
    <trip id="bike224" type="bike_bicycle" depart="21824.00" from="39649666" to="23055466#4"/>
    <trip id="bike225" type="bike_bicycle" depart="21825.00" from="46967474#0" to="320630988#1"/>
    <trip id="bike226" type="bike_bicycle" depart="21826.00" from="19354458#1" to="1055823708#3"/>
    <trip id="bike227" type="bike_bicycle" depart="21827.00" from="-778982229#0" to="254235290#3"/>
    <trip id="bike228" type="bike_bicycle" depart="21828.00" from="358953096" to="219005866#2"/>
    <trip id="bike229" type="bike_bicycle" depart="21829.00" from="253488950#0" to="108404027#3"/>
    <trip id="bike231" type="bike_bicycle" depart="21831.00" from="107085662#3" to="150393267#3"/>
    <trip id="bike232" type="bike_bicycle" depart="21832.00" from="22763251#2" to="-253536521#0"/>
    <trip id="bike233" type="bike_bicycle" depart="21833.00" from="-46963653#2" to="27283179#0"/>
    <trip id="bike234" type="bike_bicycle" depart="21834.00" from="28745182#0" to="-189032455"/>
    <trip id="bike235" type="bike_bicycle" depart="21835.00" from="169603174" to="229619681#1"/>
    <trip id="bike236" type="bike_bicycle" depart="21836.00" from="175550864#0" to="-371573876#3"/>
    <trip id="bike237" type="bike_bicycle" depart="21837.00" from="175558914#6" to="50283048#1"/>
    <trip id="bike238" type="bike_bicycle" depart="21838.00" from="24533418" to="27315344#1"/>
    <trip id="bike239" type="bike_bicycle" depart="21839.00" from="4235244" to="358953091#1"/>
    <trip id="bike240" type="bike_bicycle" depart="21840.00" from="155860740" to="-1101640531#0"/>
    <trip id="bike241" type="bike_bicycle" depart="21841.00" from="150663777" to="334457598#3"/>
    <trip id="bike242" type="bike_bicycle" depart="21842.00" from="41270994#5" to="8067184#0"/>
    <trip id="bike243" type="bike_bicycle" depart="21843.00" from="175558914#13" to="33083416"/>
    <trip id="bike244" type="bike_bicycle" depart="21844.00" from="23055277#1" to="24685073"/>
    <trip id="bike245" type="bike_bicycle" depart="21845.00" from="-40586130#2" to="-40586130#2"/>
    <trip id="bike247" type="bike_bicycle" depart="21847.00" from="150547351#4" to="270655652#1"/>
    <trip id="bike248" type="bike_bicycle" depart="21848.00" from="165828294#0" to="-30057718#2"/>
    <trip id="bike249" type="bike_bicycle" depart="21849.00" from="190458064#4" to="-245941530#4"/>
    <trip id="bike250" type="bike_bicycle" depart="21850.00" from="251816583#3" to="-150393270#12"/>
    <trip id="bike252" type="bike_bicycle" depart="21852.00" from="-150393270#11" to="255389622#7"/>
    <trip id="bike253" type="bike_bicycle" depart="21853.00" from="-249599484#3" to="190438083#1"/>
    <trip id="bike255" type="bike_bicycle" depart="21855.00" from="-38152916#1" to="150393270#8"/>
    <trip id="bike257" type="bike_bicycle" depart="21857.00" from="334457597#0" to="39649668#2"/>
    <trip id="bike258" type="bike_bicycle" depart="21858.00" from="-96851712#0" to="-211994457#0"/>
    <trip id="bike259" type="bike_bicycle" depart="21859.00" from="-149951202#4" to="22763251#1"/>
    <trip id="bike260" type="bike_bicycle" depart="21860.00" from="EMk4" to="150556234#1"/>
    <trip id="bike261" type="bike_bicycle" depart="21861.00" from="25890124" to="360785921#1"/>
    <trip id="bike262" type="bike_bicycle" depart="21862.00" from="258979227" to="339365824"/>
    <trip id="bike263" type="bike_bicycle" depart="21863.00" from="79683431#1" to="-364071761#3"/>
    <trip id="bike264" type="bike_bicycle" depart="21864.00" from="-149951202#7" to="-27245673#8"/>
    <trip id="bike265" type="bike_bicycle" depart="21865.00" from="-24549697" to="269017597#0"/>
    <trip id="bike267" type="bike_bicycle" depart="21867.00" from="28143928#2" to="35899348#1"/>
    <trip id="bike268" type="bike_bicycle" depart="21868.00" from="-305829911#1" to="24916962#2"/>
    <trip id="bike269" type="bike_bicycle" depart="21869.00" from="33083417" to="-240321454#1"/>
    <trip id="bike271" type="bike_bicycle" depart="21871.00" from="-23055276#1" to="-150393270#0"/>
    <trip id="bike272" type="bike_bicycle" depart="21872.00" from="149904354" to="270655645#1"/>
    <trip id="bike274" type="bike_bicycle" depart="21874.00" from="30158429#2" to="-208426933#0"/>
    <trip id="bike275" type="bike_bicycle" depart="21875.00" from="27247873" to="253488950#0"/>
    <trip id="bike276" type="bike_bicycle" depart="21876.00" from="-220677168#0" to="360037734#2"/>
    <trip id="bike278" type="bike_bicycle" depart="21878.00" from="-24532428#1" to="999857917#0"/>
    <trip id="bike279" type="bike_bicycle" depart="21879.00" from="360787852#3" to="150554198#8"/>
    <trip id="bike280" type="bike_bicycle" depart="21880.00" from="182065983#1" to="150896688#0"/>
    <trip id="bike281" type="bike_bicycle" depart="21881.00" from="215971174#0" to="150554190#0"/>
    <trip id="bike283" type="bike_bicycle" depart="21883.00" from="-226872065#6" to="890797552#1"/>
    <trip id="bike284" type="bike_bicycle" depart="21884.00" from="253536519" to="39649662#2"/>
    <trip id="bike286" type="bike_bicycle" depart="21886.00" from="319999605#7" to="898486015"/>
    <trip id="bike288" type="bike_bicycle" depart="21888.00" from="227205263" to="205759810#1"/>
    <trip id="bike290" type="bike_bicycle" depart="21890.00" from="107085654#0" to="410592139"/>
    <trip id="bike291" type="bike_bicycle" depart="21891.00" from="39649666" to="-215925857#1"/>
    <trip id="bike292" type="bike_bicycle" depart="21892.00" from="4432606#14" to="-694345941#2"/>
    <trip id="bike293" type="bike_bicycle" depart="21893.00" from="190446521#2" to="251103973#3"/>
    <trip id="bike294" type="bike_bicycle" depart="21894.00" from="155860727#1" to="-150393270#5"/>
    <trip id="bike295" type="bike_bicycle" depart="21895.00" from="409702804" to="-33083418#1"/>
    <trip id="bike296" type="bike_bicycle" depart="21896.00" from="-38152916#3" to="369239271#1"/>
    <trip id="bike297" type="bike_bicycle" depart="21897.00" from="150549493#0" to="4432606#11"/>
    <trip id="bike298" type="bike_bicycle" depart="21898.00" from="28297618#0" to="108404031#2"/>
    <trip id="bike299" type="bike_bicycle" depart="21899.00" from="-127606907#2" to="781419324"/>
    <trip id="bike300" type="bike_bicycle" depart="21900.00" from="-215925850#1" to="306029065#2"/>
    <trip id="bike301" type="bike_bicycle" depart="21901.00" from="206833547#0" to="35014374#2"/>
    <trip id="bike302" type="bike_bicycle" depart="21902.00" from="27247873" to="257675380#0"/>
    <trip id="bike303" type="bike_bicycle" depart="21903.00" from="207636690#1" to="366073467#1"/>
    <trip id="bike304" type="bike_bicycle" depart="21904.00" from="-216879574#6" to="-42465494"/>
    <trip id="bike305" type="bike_bicycle" depart="21905.00" from="27260399#2" to="148357182#4"/>
    <trip id="bike306" type="bike_bicycle" depart="21906.00" from="24532348#0" to="192428989"/>
    <trip id="bike307" type="bike_bicycle" depart="21907.00" from="227062813#3" to="17977155#0"/>
    <trip id="bike309" type="bike_bicycle" depart="21909.00" from="28646387#2" to="107085662#3"/>
    <trip id="bike310" type="bike_bicycle" depart="21910.00" from="-94586280#3" to="-24532428#1"/>
    <trip id="bike311" type="bike_bicycle" depart="21911.00" from="-35834153#0" to="-24532300"/>
    <trip id="bike312" type="bike_bicycle" depart="21912.00" from="227062822#0" to="35834155#0"/>
    <trip id="bike313" type="bike_bicycle" depart="21913.00" from="-334457597#0" to="-40103023#0"/>
    <trip id="bike314" type="bike_bicycle" depart="21914.00" from="205759810#2" to="306032644"/>
    <trip id="bike316" type="bike_bicycle" depart="21916.00" from="1101640531#0" to="-219005867#0"/>
    <trip id="bike317" type="bike_bicycle" depart="21917.00" from="-35899348#1" to="-4492379#0"/>
    <trip id="bike318" type="bike_bicycle" depart="21918.00" from="-320252634#3" to="-14104725#2"/>
    <trip id="bike319" type="bike_bicycle" depart="21919.00" from="227062819#2" to="108404027#2"/>
    <trip id="bike321" type="bike_bicycle" depart="21921.00" from="276412885" to="-24554287"/>
    <trip id="bike322" type="bike_bicycle" depart="21922.00" from="4400845#4" to="208243312#0"/>
    <trip id="bike324" type="bike_bicycle" depart="21924.00" from="190812637#1" to="185580084#0"/>
    <trip id="bike325" type="bike_bicycle" depart="21925.00" from="-332237966" to="-151789087#3"/>
    <trip id="bike328" type="bike_bicycle" depart="21928.00" from="-207220343" to="253488977#0"/>
    <trip id="bike331" type="bike_bicycle" depart="21931.00" from="E3_vu3" to="-24532277#0"/>
    <trip id="bike333" type="bike_bicycle" depart="21933.00" from="366073453#1" to="-442545004#1"/>
    <trip id="bike334" type="bike_bicycle" depart="21934.00" from="219005868#0" to="189765125#1"/>
    <trip id="bike336" type="bike_bicycle" depart="21936.00" from="E18.17" to="148357182#11"/>
    <trip id="bike338" type="bike_bicycle" depart="21938.00" from="320252634#0" to="781345962"/>
    <trip id="bike339" type="bike_bicycle" depart="21939.00" from="-371573876#5" to="-38152916#1"/>
    <trip id="bike340" type="bike_bicycle" depart="21940.00" from="268931673#1" to="-27315344#1"/>
    <trip id="bike341" type="bike_bicycle" depart="21941.00" from="-315426060#3" to="-208424711#1"/>
    <trip id="bike342" type="bike_bicycle" depart="21942.00" from="-1081335277" to="189765125#1"/>
    <trip id="bike343" type="bike_bicycle" depart="21943.00" from="24573650#3" to="121805107#2"/>
    <trip id="bike344" type="bike_bicycle" depart="21944.00" from="-502060954" to="288074072#0"/>
    <trip id="bike345" type="bike_bicycle" depart="21945.00" from="28646387#3" to="189773010#0"/>
    <trip id="bike346" type="bike_bicycle" depart="21946.00" from="27245673#6" to="5475849#1"/>