<?xml version="1.0" encoding="UTF-8"?>

<!-- generated on 2023-07-20 18:57:13.719813 by randomTrips.py v1_16_0+1491-7f1fb8fd7bb
<configuration>
    <begin value="21600.0"/>
    <end value="22200.0"/>
    <net-file value="/Users/jenniferhahn/Documents/GitHub/urban_mobility_simulation/models/20230718_SUMO_MA/osm.net.xml"/>
    <output-trip-file value="/Users/jenniferhahn/Documents/GitHub/urban_mobility_simulation/models/20230718_SUMO_MA/bicylce_routes.xml"/>
    <prefix value="bike"/>
    <vehicle-class value="bicycle"/>
</configuration>
-->

<routes xmlns:xsi="http://www.w3.org/2001/XMLSchema-instance" xsi:noNamespaceSchemaLocation="http://sumo.dlr.de/xsd/routes_file.xsd">
    <vType id="bike_bicycle" vClass="bicycle"/>
    <trip id="bike0" depart="21600.00" from="255389621#0" to="-150393268#2" type="bike_bicycle"/>
    <trip id="bike1" depart="21601.00" from="108404027#1" to="-43578399#0" type="bike_bicycle"/>
    <trip id="bike2" depart="21602.00" from="320202776" to="270655641" type="bike_bicycle"/>
    <trip id="bike3" depart="21603.00" from="460396653" to="-215971171#0" type="bike_bicycle"/>
    <trip id="bike4" depart="21604.00" from="175580620#0" to="-150393270#8" type="bike_bicycle"/>
    <trip id="bike5" depart="21605.00" from="-40103024" to="215971173#0" type="bike_bicycle"/>
    <trip id="bike6" depart="21606.00" from="-150393270#1" to="-364071761#1" type="bike_bicycle"/>
    <trip id="bike7" depart="21607.00" from="25873469#9" to="23055032" type="bike_bicycle"/>
    <trip id="bike8" depart="21608.00" from="-40586130#1" to="24549635#0" type="bike_bicycle"/>
    <trip id="bike9" depart="21609.00" from="377853509#0" to="-112796201#0" type="bike_bicycle"/>
    <trip id="bike10" depart="21610.00" from="376846888" to="27870084#2" type="bike_bicycle"/>
    <trip id="bike11" depart="21611.00" from="150549253#4.62.25" to="-27261757#3" type="bike_bicycle"/>
    <trip id="bike12" depart="21612.00" from="85287421#1" to="150549242#1" type="bike_bicycle"/>
    <trip id="bike13" depart="21613.00" from="-216879574#5" to="-218025840" type="bike_bicycle"/>
    <trip id="bike14" depart="21614.00" from="40586130#3" to="24685084#0" type="bike_bicycle"/>
    <trip id="bike15" depart="21615.00" from="376865290#1" to="315426062" type="bike_bicycle"/>
    <trip id="bike16" depart="21616.00" from="227062822#1" to="948937423" type="bike_bicycle"/>
    <trip id="bike17" depart="21617.00" from="155860727#0" to="23137793#3" type="bike_bicycle"/>
    <trip id="bike18" depart="21618.00" from="39649663" to="251816561" type="bike_bicycle"/>
    <trip id="bike19" depart="21619.00" from="431557289#1" to="24439729#1" type="bike_bicycle"/>
    <trip id="bike20" depart="21620.00" from="28646388#3" to="-150857989#1" type="bike_bicycle"/>
    <trip id="bike21" depart="21621.00" from="-442789059" to="121805100" type="bike_bicycle"/>
    <trip id="bike22" depart="21622.00" from="-210362484" to="-53040718#8" type="bike_bicycle"/>
    <trip id="bike23" depart="21623.00" from="-219005867#1" to="1085759979#0" type="bike_bicycle"/>
    <trip id="bike24" depart="21624.00" from="253536519" to="150853632" type="bike_bicycle"/>
    <trip id="bike25" depart="21625.00" from="150893550#1" to="-377853509#0" type="bike_bicycle"/>
    <trip id="bike26" depart="21626.00" from="107085648#3" to="638123367#2" type="bike_bicycle"/>
    <trip id="bike27" depart="21627.00" from="258194205.86" to="249599485" type="bike_bicycle"/>
    <trip id="bike28" depart="21628.00" from="-30845552#0" to="315426060#3" type="bike_bicycle"/>
    <trip id="bike29" depart="21629.00" from="-29504037" to="155860730#2" type="bike_bicycle"/>
    <trip id="bike30" depart="21630.00" from="E17_y" to="255389621#1" type="bike_bicycle"/>
    <trip id="bike31" depart="21631.00" from="23263249#2" to="270684579" type="bike_bicycle"/>
    <trip id="bike32" depart="21632.00" from="404190177#1" to="360248191" type="bike_bicycle"/>
    <trip id="bike33" depart="21633.00" from="-4492383#0" to="-150546877#2" type="bike_bicycle"/>
    <trip id="bike34" depart="21634.00" from="149951202#4" to="107085654#1" type="bike_bicycle"/>
    <trip id="bike35" depart="21635.00" from="-38139888#1" to="739924925" type="bike_bicycle"/>
    <trip id="bike36" depart="21636.00" from="440604787#1" to="149951202#3" type="bike_bicycle"/>
    <trip id="bike37" depart="21637.00" from="266188220#0" to="165343935" type="bike_bicycle"/>
    <trip id="bike38" depart="21638.00" from="53175067#1" to="190340310#1" type="bike_bicycle"/>
    <trip id="bike39" depart="21639.00" from="107085647#0" to="-7980450#1" type="bike_bicycle"/>
    <trip id="bike40" depart="21640.00" from="235391298" to="107085643" type="bike_bicycle"/>
    <trip id="bike41" depart="21641.00" from="24533443#1" to="471554672" type="bike_bicycle"/>
    <trip id="bike42" depart="21642.00" from="165720108#4" to="-40586130#2" type="bike_bicycle"/>
    <trip id="bike43" depart="21643.00" from="E8" to="216146979" type="bike_bicycle"/>
    <trip id="bike44" depart="21644.00" from="-216128744#1" to="-150857994#2" type="bike_bicycle"/>
    <trip id="bike45" depart="21645.00" from="-23055466#4" to="253488954#0" type="bike_bicycle"/>
    <trip id="bike46" depart="21646.00" from="366073462#1" to="175588575#0" type="bike_bicycle"/>
    <trip id="bike47" depart="21647.00" from="-185352101" to="161847018#1" type="bike_bicycle"/>
    <trip id="bike48" depart="21648.00" from="E4_y" to="226872065#9" type="bike_bicycle"/>
    <trip id="bike49" depart="21649.00" from="941558922" to="429104325#0" type="bike_bicycle"/>
    <trip id="bike50" depart="21650.00" from="-131229614#0" to="306029065#4" type="bike_bicycle"/>
    <trip id="bike51" depart="21651.00" from="270684568#3" to="227205258#1" type="bike_bicycle"/>
    <trip id="bike52" depart="21652.00" from="107085648#2" to="255389622#0" type="bike_bicycle"/>
    <trip id="bike53" depart="21653.00" from="-240321445#3" to="184156814#0" type="bike_bicycle"/>
    <trip id="bike54" depart="21654.00" from="189769943#0" to="8067185#1" type="bike_bicycle"/>
    <trip id="bike55" depart="21655.00" from="4404116#2" to="107085646#0" type="bike_bicycle"/>
    <trip id="bike56" depart="21656.00" from="211994459#0" to="-320252634#12" type="bike_bicycle"/>
    <trip id="bike57" depart="21657.00" from="53175060#1" to="4403852#4" type="bike_bicycle"/>
    <trip id="bike58" depart="21658.00" from="130540615" to="255225031#3" type="bike_bicycle"/>
    <trip id="bike59" depart="21659.00" from="249461334#4" to="-27245673#9" type="bike_bicycle"/>
    <trip id="bike60" depart="21660.00" from="35834155#0" to="22763251#1" type="bike_bicycle"/>
    <trip id="bike61" depart="21661.00" from="360248206#2" to="227062813#2" type="bike_bicycle"/>
    <trip id="bike62" depart="21662.00" from="-102486913#0" to="150393270#12" type="bike_bicycle"/>
    <trip id="bike63" depart="21663.00" from="-149951202#4" to="561882213#0" type="bike_bicycle"/>
    <trip id="bike64" depart="21664.00" from="442749531" to="39649668#1" type="bike_bicycle"/>
    <trip id="bike65" depart="21665.00" from="148357182#8" to="-175558914#1" type="bike_bicycle"/>
    <trip id="bike66" depart="21666.00" from="442545004#1" to="779043553#2" type="bike_bicycle"/>
    <trip id="bike67" depart="21667.00" from="-215925850#1" to="206306024" type="bike_bicycle"/>
    <trip id="bike68" depart="21668.00" from="-205103380#3" to="356166740#5" type="bike_bicycle"/>
    <trip id="bike69" depart="21669.00" from="358953096" to="-24608191#1" type="bike_bicycle"/>
    <trip id="bike70" depart="21670.00" from="19354464#0" to="231285503#1" type="bike_bicycle"/>
    <trip id="bike71" depart="21671.00" from="107085647#1" to="4404113#5" type="bike_bicycle"/>
    <trip id="bike72" depart="21672.00" from="176570669#1" to="-38152916#3" type="bike_bicycle"/>
    <trip id="bike73" depart="21673.00" from="22763251#0" to="315426064" type="bike_bicycle"/>
    <trip id="bike74" depart="21674.00" from="-364080659#1" to="149942614#0" type="bike_bicycle"/>
    <trip id="bike75" depart="21675.00" from="E4.25_y" to="25876774" type="bike_bicycle"/>
    <trip id="bike76" depart="21676.00" from="184227241#1" to="218271806#1" type="bike_bicycle"/>
    <trip id="bike77" depart="21677.00" from="-24532428#1" to="-4400844#0" type="bike_bicycle"/>
    <trip id="bike78" depart="21678.00" from="150549252#2" to="24549476#0" type="bike_bicycle"/>
    <trip id="bike79" depart="21679.00" from="-46961543" to="-415123460#0" type="bike_bicycle"/>
    <trip id="bike80" depart="21680.00" from="-205759810#0" to="253488997#1" type="bike_bicycle"/>
    <trip id="bike81" depart="21681.00" from="-4492383#0" to="5073592#0" type="bike_bicycle"/>
    <trip id="bike82" depart="21682.00" from="42760136" to="-205759810#1" type="bike_bicycle"/>
    <trip id="bike83" depart="21683.00" from="-53175159#2" to="269017594.14" type="bike_bicycle"/>
    <trip id="bike84" depart="21684.00" from="-39649661" to="-24620501#1" type="bike_bicycle"/>
    <trip id="bike85" depart="21685.00" from="630452844" to="240321454#2" type="bike_bicycle"/>
    <trip id="bike86" depart="21686.00" from="192398367#0" to="364080659#0" type="bike_bicycle"/>
    <trip id="bike87" depart="21687.00" from="376865390#1" to="-356166740#0" type="bike_bicycle"/>
    <trip id="bike88" depart="21688.00" from="-218025840" to="183413425" type="bike_bicycle"/>
    <trip id="bike89" depart="21689.00" from="178376520" to="190458064#5" type="bike_bicycle"/>
    <trip id="bike90" depart="21690.00" from="315426060#3" to="269040914" type="bike_bicycle"/>
    <trip id="bike91" depart="21691.00" from="999614640" to="-218303425" type="bike_bicycle"/>
    <trip id="bike92" depart="21692.00" from="165823636" to="150549253#4.62" type="bike_bicycle"/>
    <trip id="bike93" depart="21693.00" from="431557289#1" to="-922053733#1" type="bike_bicycle"/>
    <trip id="bike94" depart="21694.00" from="-35014374#2" to="189764716#0" type="bike_bicycle"/>
    <trip id="bike95" depart="21695.00" from="175580620#0" to="1085759979#3" type="bike_bicycle"/>
    <trip id="bike96" depart="21696.00" from="-924549199" to="5466445#0" type="bike_bicycle"/>
    <trip id="bike97" depart="21697.00" from="187060049#1" to="431557289#1" type="bike_bicycle"/>
    <trip id="bike98" depart="21698.00" from="231285503#1" to="-151785743#0" type="bike_bicycle"/>
    <trip id="bike99" depart="21699.00" from="EMk2" to="40104609#1" type="bike_bicycle"/>
    <trip id="bike100" depart="21700.00" from="93785434" to="56185655#1" type="bike_bicycle"/>
    <trip id="bike101" depart="21701.00" from="4082946#1" to="-305829909#0" type="bike_bicycle"/>
    <trip id="bike102" depart="21702.00" from="205880175#1" to="-39649662#1" type="bike_bicycle"/>
    <trip id="bike103" depart="21703.00" from="165720108#9" to="-175558914#12" type="bike_bicycle"/>
    <trip id="bike104" depart="21704.00" from="155860727#1" to="E0_vu3" type="bike_bicycle"/>
    <trip id="bike105" depart="21705.00" from="107085647#1" to="364071765#0" type="bike_bicycle"/>
    <trip id="bike106" depart="21706.00" from="189776524" to="178376520" type="bike_bicycle"/>
    <trip id="bike107" depart="21707.00" from="85287421#1" to="E4_vu3" type="bike_bicycle"/>
    <trip id="bike108" depart="21708.00" from="23148902#8" to="305829911#1" type="bike_bicycle"/>
    <trip id="bike109" depart="21709.00" from="-27261757#0" to="129556174#0" type="bike_bicycle"/>
    <trip id="bike110" depart="21710.00" from="93785423" to="24470198" type="bike_bicycle"/>
    <trip id="bike111" depart="21711.00" from="229619678#0" to="33083417" type="bike_bicycle"/>
    <trip id="bike112" depart="21712.00" from="-171793097#0" to="24533443#1" type="bike_bicycle"/>
    <trip id="bike113" depart="21713.00" from="215925850#2" to="41270994#2" type="bike_bicycle"/>
    <trip id="bike114" depart="21714.00" from="-27315344#1" to="890797552#1" type="bike_bicycle"/>
    <trip id="bike115" depart="21715.00" from="-210441943" to="-334457598#0" type="bike_bicycle"/>
    <trip id="bike116" depart="21716.00" from="245939113#3" to="270655622" type="bike_bicycle"/>
    <trip id="bike117" depart="21717.00" from="-53175069#0" to="-24532348#0" type="bike_bicycle"/>
    <trip id="bike118" depart="21718.00" from="4492383#1" to="-778982229#0" type="bike_bicycle"/>
    <trip id="bike119" depart="21719.00" from="245939113#1" to="251816566#1" type="bike_bicycle"/>
    <trip id="bike120" depart="21720.00" from="175558914#2" to="24533443#0" type="bike_bicycle"/>
    <trip id="bike121" depart="21721.00" from="219005868#1" to="628505596" type="bike_bicycle"/>
    <trip id="bike122" depart="21722.00" from="-369239271#1" to="305325049#0" type="bike_bicycle"/>
    <trip id="bike123" depart="21723.00" from="-53175159#4" to="165343935" type="bike_bicycle"/>
    <trip id="bike124" depart="21724.00" from="269040899.42" to="134394675#0" type="bike_bicycle"/>
    <trip id="bike125" depart="21725.00" from="149951202#6" to="334457596" type="bike_bicycle"/>
    <trip id="bike126" depart="21726.00" from="-205880175#2" to="190340309" type="bike_bicycle"/>
    <trip id="bike127" depart="21727.00" from="E9" to="E5" type="bike_bicycle"/>
    <trip id="bike128" depart="21728.00" from="-206576555#1" to="-39649662#0" type="bike_bicycle"/>
    <trip id="bike129" depart="21729.00" from="107085647#1" to="626345991" type="bike_bicycle"/>
    <trip id="bike130" depart="21730.00" from="4432606#12" to="4432605" type="bike_bicycle"/>
    <trip id="bike131" depart="21731.00" from="150859889#0" to="-27870084#1" type="bike_bicycle"/>
    <trip id="bike132" depart="21732.00" from="40103022" to="28646388#1" type="bike_bicycle"/>
    <trip id="bike133" depart="21733.00" from="251106111#0" to="E11_y" type="bike_bicycle"/>
    <trip id="bike134" depart="21734.00" from="26340368#1" to="-112796201#4" type="bike_bicycle"/>
    <trip id="bike135" depart="21735.00" from="385966809#2" to="134394171#3" type="bike_bicycle"/>
    <trip id="bike136" depart="21736.00" from="269001612#3" to="692648169#0" type="bike_bicycle"/>
    <trip id="bike137" depart="21737.00" from="-24819999#2" to="-240348395#1" type="bike_bicycle"/>
    <trip id="bike138" depart="21738.00" from="-227062819#2" to="23148901#1" type="bike_bicycle"/>
    <trip id="bike139" depart="21739.00" from="107085664#0" to="24819999#2" type="bike_bicycle"/>
    <trip id="bike140" depart="21740.00" from="305829909#1" to="-366073485#1" type="bike_bicycle"/>
    <trip id="bike141" depart="21741.00" from="253489009#1" to="107085647#0" type="bike_bicycle"/>
    <trip id="bike142" depart="21742.00" from="206833547#0" to="5073592#0" type="bike_bicycle"/>
    <trip id="bike143" depart="21743.00" from="40584784" to="-216879574#4" type="bike_bicycle"/>
    <trip id="bike144" depart="21744.00" from="178376520" to="108404032#1" type="bike_bicycle"/>
    <trip id="bike145" depart="21745.00" from="-1101405928#0" to="359948072" type="bike_bicycle"/>
    <trip id="bike146" depart="21746.00" from="254235290#1" to="1064398602#0" type="bike_bicycle"/>
    <trip id="bike147" depart="21747.00" from="320252634#12" to="23137790#2" type="bike_bicycle"/>
    <trip id="bike148" depart="21748.00" from="181503326#1" to="-127606907#1" type="bike_bicycle"/>
    <trip id="bike149" depart="21749.00" from="-208424711#0" to="4432606#7" type="bike_bicycle"/>
    <trip id="bike150" depart="21750.00" from="502060955#0" to="23055277#1" type="bike_bicycle"/>
    <trip id="bike151" depart="21751.00" from="40103023#1" to="24532431#1" type="bike_bicycle"/>
    <trip id="bike152" depart="21752.00" from="-270684568#7" to="-245941530#3" type="bike_bicycle"/>
    <trip id="bike153" depart="21753.00" from="148357183#1" to="47214333#2" type="bike_bicycle"/>
    <trip id="bike154" depart="21754.00" from="366073475#6" to="429104325#0" type="bike_bicycle"/>
    <trip id="bike155" depart="21755.00" from="47214333#2" to="-37825125#6" type="bike_bicycle"/>
    <trip id="bike156" depart="21756.00" from="-922053733#1" to="-220677168#3" type="bike_bicycle"/>
    <trip id="bike157" depart="21757.00" from="360248211#2" to="4432610#1" type="bike_bicycle"/>
    <trip id="bike158" depart="21758.00" from="165849627#8" to="251816568" type="bike_bicycle"/>
    <trip id="bike159" depart="21759.00" from="-27245998" to="57381284" type="bike_bicycle"/>
    <trip id="bike160" depart="21760.00" from="434327503" to="95170292#1" type="bike_bicycle"/>
    <trip id="bike161" depart="21761.00" from="377905809#0" to="4432606#2" type="bike_bicycle"/>
    <trip id="bike162" depart="21762.00" from="-150393267#9" to="320207734" type="bike_bicycle"/>
    <trip id="bike163" depart="21763.00" from="150546875" to="584126367#0" type="bike_bicycle"/>
    <trip id="bike164" depart="21764.00" from="371573876#2" to="433018233#1" type="bike_bicycle"/>
    <trip id="bike165" depart="21765.00" from="377905809#0" to="107085650" type="bike_bicycle"/>
    <trip id="bike166" depart="21766.00" from="364080662#0" to="-23055404#2" type="bike_bicycle"/>
    <trip id="bike167" depart="21767.00" from="4404113#3" to="42760135#2" type="bike_bicycle"/>
    <trip id="bike168" depart="21768.00" from="-415123460#3" to="385966809#0" type="bike_bicycle"/>
    <trip id="bike169" depart="21769.00" from="190340312.8" to="148357182#11" type="bike_bicycle"/>
    <trip id="bike170" depart="21770.00" from="366073475#4" to="-4492379#1" type="bike_bicycle"/>
    <trip id="bike171" depart="21771.00" from="-150393267#5" to="-35834157#2" type="bike_bicycle"/>
    <trip id="bike172" depart="21772.00" from="150393272#1" to="434327503" type="bike_bicycle"/>
    <trip id="bike173" depart="21773.00" from="922053740" to="1085759981#0" type="bike_bicycle"/>
    <trip id="bike174" depart="21774.00" from="255389622#3" to="165720108#6" type="bike_bicycle"/>
    <trip id="bike175" depart="21775.00" from="97301282#0" to="227062822#2" type="bike_bicycle"/>
    <trip id="bike176" depart="21776.00" from="69423517" to="-240348395#0" type="bike_bicycle"/>
    <trip id="bike177" depart="21777.00" from="93785463#0.22" to="-320252634#12" type="bike_bicycle"/>
    <trip id="bike178" depart="21778.00" from="898416657#0" to="107085648#1" type="bike_bicycle"/>
    <trip id="bike179" depart="21779.00" from="-23055404#2" to="184156809" type="bike_bicycle"/>
    <trip id="bike180" depart="21780.00" from="315426060#0" to="149951202#0" type="bike_bicycle"/>
    <trip id="bike181" depart="21781.00" from="24909020#1" to="216879574#5" type="bike_bicycle"/>
    <trip id="bike182" depart="21782.00" from="163419805#0" to="24377458" type="bike_bicycle"/>
    <trip id="bike183" depart="21783.00" from="-999862407" to="29020152" type="bike_bicycle"/>
    <trip id="bike184" depart="21784.00" from="-1055826509" to="56185651#3" type="bike_bicycle"/>
    <trip id="bike185" depart="21785.00" from="227205268#1" to="306029065#0" type="bike_bicycle"/>
    <trip id="bike186" depart="21786.00" from="320252634#3" to="269017614" type="bike_bicycle"/>
    <trip id="bike187" depart="21787.00" from="150851817#1" to="-205759801#0" type="bike_bicycle"/>
    <trip id="bike188" depart="21788.00" from="269001613#0" to="150540315" type="bike_bicycle"/>
    <trip id="bike189" depart="21789.00" from="149951200#3" to="40586130#3" type="bike_bicycle"/>
    <trip id="bike190" depart="21790.00" from="306029065#1" to="134394675#2" type="bike_bicycle"/>
    <trip id="bike191" depart="21791.00" from="148359950#0" to="171453050" type="bike_bicycle"/>
    <trip id="bike192" depart="21792.00" from="165823635" to="127608718#1" type="bike_bicycle"/>
    <trip id="bike193" depart="21793.00" from="-245941530#2" to="175558914#9" type="bike_bicycle"/>
    <trip id="bike194" depart="21794.00" from="69852238" to="270655645#1" type="bike_bicycle"/>
    <trip id="bike195" depart="21795.00" from="500582851#1" to="251816540" type="bike_bicycle"/>
    <trip id="bike196" depart="21796.00" from="134394675#0" to="23055466#4" type="bike_bicycle"/>
    <trip id="bike197" depart="21797.00" from="-102486913#0" to="115738329#0.6" type="bike_bicycle"/>
    <trip id="bike198" depart="21798.00" from="182489957#1" to="24532277#1" type="bike_bicycle"/>
    <trip id="bike199" depart="21799.00" from="26602743#0" to="190451409" type="bike_bicycle"/>
    <trip id="bike200" depart="21800.00" from="187057791#1" to="-39649662#1" type="bike_bicycle"/>
    <trip id="bike201" depart="21801.00" from="192428988#0" to="500261497" type="bike_bicycle"/>
    <trip id="bike202" depart="21802.00" from="366073475#6" to="-306032456" type="bike_bicycle"/>
    <trip id="bike203" depart="21803.00" from="-214586680" to="218025853#1" type="bike_bicycle"/>
    <trip id="bike204" depart="21804.00" from="253489002#2" to="150547351#2" type="bike_bicycle"/>
    <trip id="bike205" depart="21805.00" from="385970249#1" to="33083988#1" type="bike_bicycle"/>
    <trip id="bike206" depart="21806.00" from="269040907#0" to="-43866170#1" type="bike_bicycle"/>
    <trip id="bike207" depart="21807.00" from="-364071761#1" to="-150393267#9" type="bike_bicycle"/>
    <trip id="bike208" depart="21808.00" from="-694345941#2" to="19354464#1" type="bike_bicycle"/>
    <trip id="bike209" depart="21809.00" from="4084169" to="-206576555#1" type="bike_bicycle"/>
    <trip id="bike210" depart="21810.00" from="174379434#3" to="253488980" type="bike_bicycle"/>
    <trip id="bike211" depart="21811.00" from="-35948955#1" to="27429642#0" type="bike_bicycle"/>
    <trip id="bike212" depart="21812.00" from="208426932#1" to="-718155368#1" type="bike_bicycle"/>
    <trip id="bike213" depart="21813.00" from="266188220#2" to="-1101640525#1" type="bike_bicycle"/>
    <trip id="bike214" depart="21814.00" from="33083988#0" to="359726683#1" type="bike_bicycle"/>
    <trip id="bike215" depart="21815.00" from="-226872065#9" to="17977137" type="bike_bicycle"/>
    <trip id="bike216" depart="21816.00" from="-319999605#0" to="8601421#1" type="bike_bicycle"/>
    <trip id="bike217" depart="21817.00" from="218271806#1" to="-150896688#4" type="bike_bicycle"/>
    <trip id="bike218" depart="21818.00" from="-922053733#0" to="4082065#0" type="bike_bicycle"/>
    <trip id="bike219" depart="21819.00" from="189899508" to="371573876#1" type="bike_bicycle"/>
    <trip id="bike220" depart="21820.00" from="269017588#4" to="E14_y" type="bike_bicycle"/>
    <trip id="bike221" depart="21821.00" from="245941530#1" to="7980431#1" type="bike_bicycle"/>
    <trip id="bike222" depart="21822.00" from="45085545" to="251109201" type="bike_bicycle"/>
    <trip id="bike223" depart="21823.00" from="306029064#0" to="215971172#0" type="bike_bicycle"/>
    <trip id="bike224" depart="21824.00" from="39649666" to="23055466#4" type="bike_bicycle"/>
    <trip id="bike225" depart="21825.00" from="46967474#0" to="320630988#1" type="bike_bicycle"/>
    <trip id="bike226" depart="21826.00" from="19354458#1" to="1055823708#3" type="bike_bicycle"/>
    <trip id="bike227" depart="21827.00" from="-778982229#0" to="254235290#3" type="bike_bicycle"/>
    <trip id="bike228" depart="21828.00" from="358953096" to="219005866#2" type="bike_bicycle"/>
    <trip id="bike229" depart="21829.00" from="253488950#0" to="108404027#3" type="bike_bicycle"/>
    <trip id="bike230" depart="21830.00" from="-209308036" to="114389127#4" type="bike_bicycle"/>
    <trip id="bike231" depart="21831.00" from="107085662#3" to="150393267#3" type="bike_bicycle"/>
    <trip id="bike232" depart="21832.00" from="22763251#2" to="-253536521#0" type="bike_bicycle"/>
    <trip id="bike233" depart="21833.00" from="-46963653#2" to="27283179#0" type="bike_bicycle"/>
    <trip id="bike234" depart="21834.00" from="28745182#0" to="-189032455" type="bike_bicycle"/>
    <trip id="bike235" depart="21835.00" from="169603174" to="229619681#1" type="bike_bicycle"/>
    <trip id="bike236" depart="21836.00" from="175550864#0" to="-371573876#3" type="bike_bicycle"/>
    <trip id="bike237" depart="21837.00" from="175558914#6" to="50283048#1" type="bike_bicycle"/>
    <trip id="bike238" depart="21838.00" from="24533418" to="27315344#1" type="bike_bicycle"/>
    <trip id="bike239" depart="21839.00" from="4235244" to="358953091#1" type="bike_bicycle"/>
    <trip id="bike240" depart="21840.00" from="155860740" to="-1101640531#0" type="bike_bicycle"/>
    <trip id="bike241" depart="21841.00" from="150663777" to="334457598#3" type="bike_bicycle"/>
    <trip id="bike242" depart="21842.00" from="41270994#5" to="8067184#0" type="bike_bicycle"/>
    <trip id="bike243" depart="21843.00" from="175558914#13" to="33083416" type="bike_bicycle"/>
    <trip id="bike244" depart="21844.00" from="23055277#1" to="24685073" type="bike_bicycle"/>
    <trip id="bike245" depart="21845.00" from="-40586130#2" to="-40586130#2" type="bike_bicycle"/>
    <trip id="bike246" depart="21846.00" from="184156815" to="-150393270#6" type="bike_bicycle"/>
    <trip id="bike247" depart="21847.00" from="150547351#4" to="270655652#1" type="bike_bicycle"/>
    <trip id="bike248" depart="21848.00" from="165828294#0" to="-30057718#2" type="bike_bicycle"/>
    <trip id="bike249" depart="21849.00" from="190458064#4" to="-245941530#4" type="bike_bicycle"/>
    <trip id="bike250" depart="21850.00" from="251816583#3" to="-150393270#12" type="bike_bicycle"/>
    <trip id="bike251" depart="21851.00" from="164152502#6" to="238870175#1" type="bike_bicycle"/>
    <trip id="bike252" depart="21852.00" from="-150393270#11" to="255389622#7" type="bike_bicycle"/>
    <trip id="bike253" depart="21853.00" from="-249599484#3" to="190438083#1" type="bike_bicycle"/>
    <trip id="bike254" depart="21854.00" from="-150896688#4" to="155860730#1" type="bike_bicycle"/>
    <trip id="bike255" depart="21855.00" from="-38152916#1" to="150393270#8" type="bike_bicycle"/>
    <trip id="bike256" depart="21856.00" from="356166740#6" to="155860730#1" type="bike_bicycle"/>
    <trip id="bike257" depart="21857.00" from="334457597#0" to="39649668#2" type="bike_bicycle"/>
    <trip id="bike258" depart="21858.00" from="-96851712#0" to="-211994457#0" type="bike_bicycle"/>
    <trip id="bike259" depart="21859.00" from="-149951202#4" to="22763251#1" type="bike_bicycle"/>
    <trip id="bike260" depart="21860.00" from="EMk4" to="150556234#1" type="bike_bicycle"/>
    <trip id="bike261" depart="21861.00" from="25890124" to="360785921#1" type="bike_bicycle"/>
    <trip id="bike262" depart="21862.00" from="258979227" to="339365824" type="bike_bicycle"/>
    <trip id="bike263" depart="21863.00" from="79683431#1" to="-364071761#3" type="bike_bicycle"/>
    <trip id="bike264" depart="21864.00" from="-149951202#7" to="-27245673#8" type="bike_bicycle"/>
    <trip id="bike265" depart="21865.00" from="-24549697" to="269017597#0" type="bike_bicycle"/>
    <trip id="bike266" depart="21866.00" from="237278282#3" to="-402016793" type="bike_bicycle"/>
    <trip id="bike267" depart="21867.00" from="28143928#2" to="35899348#1" type="bike_bicycle"/>
    <trip id="bike268" depart="21868.00" from="-305829911#1" to="24916962#2" type="bike_bicycle"/>
    <trip id="bike269" depart="21869.00" from="33083417" to="-240321454#1" type="bike_bicycle"/>
    <trip id="bike270" depart="21870.00" from="387015286" to="898484255" type="bike_bicycle"/>
    <trip id="bike271" depart="21871.00" from="-23055276#1" to="-150393270#0" type="bike_bicycle"/>
    <trip id="bike272" depart="21872.00" from="149904354" to="270655645#1" type="bike_bicycle"/>
    <trip id="bike273" depart="21873.00" from="8601421#1" to="165720108#0.163" type="bike_bicycle"/>
    <trip id="bike274" depart="21874.00" from="30158429#2" to="-208426933#0" type="bike_bicycle"/>
    <trip id="bike275" depart="21875.00" from="27247873" to="253488950#0" type="bike_bicycle"/>
    <trip id="bike276" depart="21876.00" from="-220677168#0" to="360037734#2" type="bike_bicycle"/>
    <trip id="bike277" depart="21877.00" from="4084172" to="24620501#0" type="bike_bicycle"/>
    <trip id="bike278" depart="21878.00" from="-24532428#1" to="999857917#0" type="bike_bicycle"/>
    <trip id="bike279" depart="21879.00" from="360787852#3" to="150554198#8" type="bike_bicycle"/>
    <trip id="bike280" depart="21880.00" from="182065983#1" to="150896688#0" type="bike_bicycle"/>
    <trip id="bike281" depart="21881.00" from="215971174#0" to="150554190#0" type="bike_bicycle"/>
    <trip id="bike282" depart="21882.00" from="4084166" to="388155249#0" type="bike_bicycle"/>
    <trip id="bike283" depart="21883.00" from="-226872065#6" to="890797552#1" type="bike_bicycle"/>
    <trip id="bike284" depart="21884.00" from="253536519" to="39649662#2" type="bike_bicycle"/>
    <trip id="bike285" depart="21885.00" from="288074072#1" to="184156815" type="bike_bicycle"/>
    <trip id="bike286" depart="21886.00" from="319999605#7" to="898486015" type="bike_bicycle"/>
    <trip id="bike287" depart="21887.00" from="107085658#1" to="376865411#2" type="bike_bicycle"/>
    <trip id="bike288" depart="21888.00" from="227205263" to="205759810#1" type="bike_bicycle"/>
    <trip id="bike289" depart="21889.00" from="184156814#2" to="31648190#1" type="bike_bicycle"/>
    <trip id="bike290" depart="21890.00" from="107085654#0" to="410592139" type="bike_bicycle"/>
    <trip id="bike291" depart="21891.00" from="39649666" to="-215925857#1" type="bike_bicycle"/>
    <trip id="bike292" depart="21892.00" from="4432606#14" to="-694345941#2" type="bike_bicycle"/>
    <trip id="bike293" depart="21893.00" from="190446521#2" to="251103973#3" type="bike_bicycle"/>
    <trip id="bike294" depart="21894.00" from="155860727#1" to="-150393270#5" type="bike_bicycle"/>
    <trip id="bike295" depart="21895.00" from="409702804" to="-33083418#1" type="bike_bicycle"/>
    <trip id="bike296" depart="21896.00" from="-38152916#3" to="369239271#1" type="bike_bicycle"/>
    <trip id="bike297" depart="21897.00" from="150549493#0" to="4432606#11" type="bike_bicycle"/>
    <trip id="bike298" depart="21898.00" from="28297618#0" to="108404031#2" type="bike_bicycle"/>
    <trip id="bike299" depart="21899.00" from="-127606907#2" to="781419324" type="bike_bicycle"/>