<?xml version="1.0" encoding="UTF-8"?>

<!-- generated on 2023-07-20 20:23:46.898293 by randomTrips.py v1_16_0+1491-7f1fb8fd7bb
<configuration>
    <begin value="21600.0"/>
    <end value="22200.0"/>
    <net-file value="/Users/jenniferhahn/Documents/GitHub/urban_mobility_simulation/models/20230718_SUMO_MA/osm.net.xml"/>
    <output-trip-file value="/Users/jenniferhahn/Documents/GitHub/urban_mobility_simulation/models/20230718_SUMO_MA/motorcycle_routes.xml"/>
    <prefix value="moto"/>
    <validate value="True"/>
    <vehicle-class value="motorcycle"/>
</configuration>
-->

<!-- generated on 2023-07-20 20:23:46 by Eclipse SUMO duarouter Version 1.16.0
<configuration xmlns:xsi="http://www.w3.org/2001/XMLSchema-instance" xsi:noNamespaceSchemaLocation="http://sumo.dlr.de/xsd/duarouterConfiguration.xsd">

    <input>
        <net-file value="/Users/jenniferhahn/Documents/GitHub/urban_mobility_simulation/models/20230718_SUMO_MA/osm.net.xml"/>
        <route-files value="/Users/jenniferhahn/Documents/GitHub/urban_mobility_simulation/models/20230718_SUMO_MA/motorcycle_routes.xml"/>
    </input>

    <output>
        <output-file value="/Users/jenniferhahn/Documents/GitHub/urban_mobility_simulation/models/20230718_SUMO_MA/motorcycle_routes.xml.tmp"/>
        <alternatives-output value="NUL"/>
        <write-trips value="true"/>
    </output>

    <time>
        <begin value="21600.0"/>
        <end value="22200.0"/>
    </time>

    <report>
        <no-warnings value="true"/>
        <ignore-errors value="true"/>
        <no-step-log value="true"/>
    </report>

</configuration>
-->

<routes xmlns:xsi="http://www.w3.org/2001/XMLSchema-instance" xsi:noNamespaceSchemaLocation="http://sumo.dlr.de/xsd/routes_file.xsd">
    <vType id="moto_motorcycle" vClass="motorcycle"/>
    <trip id="moto0" type="moto_motorcycle" depart="21600.00" from="255389621#0" to="-150393268#2"/>
    <trip id="moto1" type="moto_motorcycle" depart="21601.00" from="108404027#1" to="-43578399#0"/>
    <trip id="moto2" type="moto_motorcycle" depart="21602.00" from="320202776" to="270655641"/>
    <trip id="moto3" type="moto_motorcycle" depart="21603.00" from="460396653" to="-215971171#0"/>
    <trip id="moto4" type="moto_motorcycle" depart="21604.00" from="175580620#0" to="-150393270#8"/>
    <trip id="moto5" type="moto_motorcycle" depart="21605.00" from="-40103024" to="215971173#0"/>
    <trip id="moto6" type="moto_motorcycle" depart="21606.00" from="-150393270#1" to="-364071761#1"/>
    <trip id="moto7" type="moto_motorcycle" depart="21607.00" from="25873469#9" to="23055032"/>
    <trip id="moto8" type="moto_motorcycle" depart="21608.00" from="-40586130#1" to="24549635#0"/>
    <trip id="moto9" type="moto_motorcycle" depart="21609.00" from="377853509#0" to="-112796201#0"/>
    <trip id="moto10" type="moto_motorcycle" depart="21610.00" from="376846888" to="27870084#2"/>
    <trip id="moto11" type="moto_motorcycle" depart="21611.00" from="150549253#4.62.25" to="-27261757#3"/>
    <trip id="moto12" type="moto_motorcycle" depart="21612.00" from="85287421#1" to="150549242#1"/>
    <trip id="moto13" type="moto_motorcycle" depart="21613.00" from="-216879574#5" to="-218025840"/>
    <trip id="moto14" type="moto_motorcycle" depart="21614.00" from="40586130#3" to="24685084#0"/>
    <trip id="moto16" type="moto_motorcycle" depart="21616.00" from="227062822#1" to="948937423"/>
    <trip id="moto18" type="moto_motorcycle" depart="21618.00" from="39649663" to="251816561"/>
    <trip id="moto19" type="moto_motorcycle" depart="21619.00" from="431557289#1" to="24439729#1"/>
    <trip id="moto20" type="moto_motorcycle" depart="21620.00" from="28646388#3" to="-150857989#1"/>
    <trip id="moto21" type="moto_motorcycle" depart="21621.00" from="-442789059" to="121805100"/>
    <trip id="moto22" type="moto_motorcycle" depart="21622.00" from="-210362484" to="-53040718#8"/>
    <trip id="moto23" type="moto_motorcycle" depart="21623.00" from="-219005867#1" to="1085759979#0"/>
    <trip id="moto24" type="moto_motorcycle" depart="21624.00" from="253536519" to="150853632"/>
    <trip id="moto25" type="moto_motorcycle" depart="21625.00" from="150893550#1" to="-377853509#0"/>
    <trip id="moto26" type="moto_motorcycle" depart="21626.00" from="107085648#3" to="638123367#2"/>
    <trip id="moto27" type="moto_motorcycle" depart="21627.00" from="258194205.86" to="249599485"/>
    <trip id="moto28" type="moto_motorcycle" depart="21628.00" from="-30845552#0" to="315426060#3"/>
    <trip id="moto29" type="moto_motorcycle" depart="21629.00" from="-29504037" to="155860730#2"/>
    <trip id="moto31" type="moto_motorcycle" depart="21631.00" from="23263249#2" to="270684579"/>
    <trip id="moto32" type="moto_motorcycle" depart="21632.00" from="404190177#1" to="360248191"/>
    <trip id="moto33" type="moto_motorcycle" depart="21633.00" from="-4492383#0" to="-150546877#2"/>
    <trip id="moto34" type="moto_motorcycle" depart="21634.00" from="149951202#4" to="107085654#1"/>
    <trip id="moto35" type="moto_motorcycle" depart="21635.00" from="-38139888#1" to="739924925"/>
    <trip id="moto36" type="moto_motorcycle" depart="21636.00" from="440604787#1" to="149951202#3"/>
    <trip id="moto37" type="moto_motorcycle" depart="21637.00" from="266188220#0" to="165343935"/>
    <trip id="moto38" type="moto_motorcycle" depart="21638.00" from="53175067#1" to="190340310#1"/>
    <trip id="moto39" type="moto_motorcycle" depart="21639.00" from="107085647#0" to="-7980450#1"/>
    <trip id="moto40" type="moto_motorcycle" depart="21640.00" from="235391298" to="107085643"/>
    <trip id="moto41" type="moto_motorcycle" depart="21641.00" from="24533443#1" to="471554672"/>
    <trip id="moto42" type="moto_motorcycle" depart="21642.00" from="165720108#4" to="-40586130#2"/>
    <trip id="moto43" type="moto_motorcycle" depart="21643.00" from="E8" to="216146979"/>
    <trip id="moto44" type="moto_motorcycle" depart="21644.00" from="-216128744#1" to="-150857994#2"/>
    <trip id="moto45" type="moto_motorcycle" depart="21645.00" from="-23055466#4" to="253488954#0"/>
    <trip id="moto46" type="moto_motorcycle" depart="21646.00" from="366073462#1" to="175588575#0"/>
    <trip id="moto47" type="moto_motorcycle" depart="21647.00" from="-185352101" to="161847018#1"/>
    <trip id="moto48" type="moto_motorcycle" depart="21648.00" from="E4_y" to="226872065#9"/>
    <trip id="moto49" type="moto_motorcycle" depart="21649.00" from="941558922" to="429104325#0"/>
    <trip id="moto50" type="moto_motorcycle" depart="21650.00" from="-131229614#0" to="306029065#4"/>
    <trip id="moto51" type="moto_motorcycle" depart="21651.00" from="270684568#3" to="227205258#1"/>
    <trip id="moto52" type="moto_motorcycle" depart="21652.00" from="107085648#2" to="255389622#0"/>
    <trip id="moto53" type="moto_motorcycle" depart="21653.00" from="-240321445#3" to="184156814#0"/>
    <trip id="moto54" type="moto_motorcycle" depart="21654.00" from="189769943#0" to="8067185#1"/>
    <trip id="moto55" type="moto_motorcycle" depart="21655.00" from="4404116#2" to="107085646#0"/>
    <trip id="moto56" type="moto_motorcycle" depart="21656.00" from="211994459#0" to="-320252634#12"/>
    <trip id="moto57" type="moto_motorcycle" depart="21657.00" from="53175060#1" to="4403852#4"/>
    <trip id="moto58" type="moto_motorcycle" depart="21658.00" from="130540615" to="255225031#3"/>
    <trip id="moto59" type="moto_motorcycle" depart="21659.00" from="249461334#4" to="-27245673#9"/>
    <trip id="moto60" type="moto_motorcycle" depart="21660.00" from="35834155#0" to="22763251#1"/>
    <trip id="moto61" type="moto_motorcycle" depart="21661.00" from="360248206#2" to="227062813#2"/>
    <trip id="moto62" type="moto_motorcycle" depart="21662.00" from="-102486913#0" to="150393270#12"/>
    <trip id="moto63" type="moto_motorcycle" depart="21663.00" from="-149951202#4" to="561882213#0"/>
    <trip id="moto64" type="moto_motorcycle" depart="21664.00" from="442749531" to="39649668#1"/>
    <trip id="moto65" type="moto_motorcycle" depart="21665.00" from="148357182#8" to="-175558914#1"/>
    <trip id="moto66" type="moto_motorcycle" depart="21666.00" from="442545004#1" to="779043553#2"/>
    <trip id="moto67" type="moto_motorcycle" depart="21667.00" from="-215925850#1" to="206306024"/>
    <trip id="moto68" type="moto_motorcycle" depart="21668.00" from="-205103380#3" to="356166740#5"/>
    <trip id="moto70" type="moto_motorcycle" depart="21670.00" from="19354464#0" to="231285503#1"/>
    <trip id="moto71" type="moto_motorcycle" depart="21671.00" from="107085647#1" to="4404113#5"/>
    <trip id="moto72" type="moto_motorcycle" depart="21672.00" from="176570669#1" to="-38152916#3"/>
    <trip id="moto73" type="moto_motorcycle" depart="21673.00" from="22763251#0" to="315426064"/>
    <trip id="moto74" type="moto_motorcycle" depart="21674.00" from="-364080659#1" to="149942614#0"/>
    <trip id="moto75" type="moto_motorcycle" depart="21675.00" from="E4.25_y" to="25876774"/>
    <trip id="moto76" type="moto_motorcycle" depart="21676.00" from="184227241#1" to="218271806#1"/>
    <trip id="moto77" type="moto_motorcycle" depart="21677.00" from="-24532428#1" to="-4400844#0"/>
    <trip id="moto78" type="moto_motorcycle" depart="21678.00" from="150549252#2" to="24549476#0"/>
    <trip id="moto79" type="moto_motorcycle" depart="21679.00" from="-46961543" to="-415123460#0"/>
    <trip id="moto80" type="moto_motorcycle" depart="21680.00" from="-205759810#0" to="253488997#1"/>
    <trip id="moto81" type="moto_motorcycle" depart="21681.00" from="-4492383#0" to="5073592#0"/>
    <trip id="moto82" type="moto_motorcycle" depart="21682.00" from="42760136" to="-205759810#1"/>
    <trip id="moto83" type="moto_motorcycle" depart="21683.00" from="-53175159#2" to="269017594.14"/>
    <trip id="moto84" type="moto_motorcycle" depart="21684.00" from="-39649661" to="-24620501#1"/>
    <trip id="moto85" type="moto_motorcycle" depart="21685.00" from="630452844" to="240321454#2"/>
    <trip id="moto86" type="moto_motorcycle" depart="21686.00" from="192398367#0" to="364080659#0"/>
    <trip id="moto87" type="moto_motorcycle" depart="21687.00" from="376865390#1" to="-356166740#0"/>
    <trip id="moto88" type="moto_motorcycle" depart="21688.00" from="-218025840" to="183413425"/>
    <trip id="moto89" type="moto_motorcycle" depart="21689.00" from="178376520" to="190458064#5"/>
    <trip id="moto90" type="moto_motorcycle" depart="21690.00" from="315426060#3" to="269040914"/>
    <trip id="moto91" type="moto_motorcycle" depart="21691.00" from="999614640" to="-218303425"/>
    <trip id="moto93" type="moto_motorcycle" depart="21693.00" from="431557289#1" to="-922053733#1"/>
    <trip id="moto94" type="moto_motorcycle" depart="21694.00" from="-35014374#2" to="189764716#0"/>
    <trip id="moto95" type="moto_motorcycle" depart="21695.00" from="175580620#0" to="1085759979#3"/>
    <trip id="moto96" type="moto_motorcycle" depart="21696.00" from="-924549199" to="5466445#0"/>
    <trip id="moto97" type="moto_motorcycle" depart="21697.00" from="187060049#1" to="431557289#1"/>
    <trip id="moto98" type="moto_motorcycle" depart="21698.00" from="231285503#1" to="-151785743#0"/>
    <trip id="moto99" type="moto_motorcycle" depart="21699.00" from="EMk2" to="40104609#1"/>
    <trip id="moto100" type="moto_motorcycle" depart="21700.00" from="93785434" to="56185655#1"/>
    <trip id="moto101" type="moto_motorcycle" depart="21701.00" from="4082946#1" to="-305829909#0"/>
    <trip id="moto102" type="moto_motorcycle" depart="21702.00" from="205880175#1" to="-39649662#1"/>
    <trip id="moto103" type="moto_motorcycle" depart="21703.00" from="165720108#9" to="-175558914#12"/>
    <trip id="moto104" type="moto_motorcycle" depart="21704.00" from="155860727#1" to="E0_vu3"/>
    <trip id="moto105" type="moto_motorcycle" depart="21705.00" from="107085647#1" to="364071765#0"/>
    <trip id="moto106" type="moto_motorcycle" depart="21706.00" from="189776524" to="178376520"/>
    <trip id="moto107" type="moto_motorcycle" depart="21707.00" from="85287421#1" to="E4_vu3"/>
    <trip id="moto108" type="moto_motorcycle" depart="21708.00" from="23148902#8" to="305829911#1"/>
    <trip id="moto109" type="moto_motorcycle" depart="21709.00" from="-27261757#0" to="129556174#0"/>
    <trip id="moto110" type="moto_motorcycle" depart="21710.00" from="93785423" to="24470198"/>
    <trip id="moto111" type="moto_motorcycle" depart="21711.00" from="229619678#0" to="33083417"/>
    <trip id="moto112" type="moto_motorcycle" depart="21712.00" from="-171793097#0" to="24533443#1"/>
    <trip id="moto113" type="moto_motorcycle" depart="21713.00" from="215925850#2" to="41270994#2"/>
    <trip id="moto114" type="moto_motorcycle" depart="21714.00" from="-27315344#1" to="890797552#1"/>
    <trip id="moto115" type="moto_motorcycle" depart="21715.00" from="-210441943" to="-334457598#0"/>
    <trip id="moto116" type="moto_motorcycle" depart="21716.00" from="245939113#3" to="270655622"/>
    <trip id="moto117" type="moto_motorcycle" depart="21717.00" from="-53175069#0" to="-24532348#0"/>
    <trip id="moto118" type="moto_motorcycle" depart="21718.00" from="4492383#1" to="-778982229#0"/>
    <trip id="moto119" type="moto_motorcycle" depart="21719.00" from="245939113#1" to="251816566#1"/>
    <trip id="moto120" type="moto_motorcycle" depart="21720.00" from="175558914#2" to="24533443#0"/>
    <trip id="moto121" type="moto_motorcycle" depart="21721.00" from="219005868#1" to="628505596"/>
    <trip id="moto122" type="moto_motorcycle" depart="21722.00" from="-369239271#1" to="305325049#0"/>
    <trip id="moto123" type="moto_motorcycle" depart="21723.00" from="-53175159#4" to="165343935"/>
    <trip id="moto124" type="moto_motorcycle" depart="21724.00" from="269040899.42" to="134394675#0"/>
    <trip id="moto125" type="moto_motorcycle" depart="21725.00" from="149951202#6" to="334457596"/>
    <trip id="moto126" type="moto_motorcycle" depart="21726.00" from="-205880175#2" to="190340309"/>
    <trip id="moto127" type="moto_motorcycle" depart="21727.00" from="E9" to="E5"/>
    <trip id="moto128" type="moto_motorcycle" depart="21728.00" from="-206576555#1" to="-39649662#0"/>
    <trip id="moto129" type="moto_motorcycle" depart="21729.00" from="107085647#1" to="626345991"/>
    <trip id="moto130" type="moto_motorcycle" depart="21730.00" from="4432606#12" to="4432605"/>
    <trip id="moto131" type="moto_motorcycle" depart="21731.00" from="150859889#0" to="-27870084#1"/>
    <trip id="moto132" type="moto_motorcycle" depart="21732.00" from="40103022" to="28646388#1"/>
    <trip id="moto134" type="moto_motorcycle" depart="21734.00" from="26340368#1" to="-112796201#4"/>
    <trip id="moto135" type="moto_motorcycle" depart="21735.00" from="385966809#2" to="134394171#3"/>
    <trip id="moto136" type="moto_motorcycle" depart="21736.00" from="269001612#3" to="692648169#0"/>
    <trip id="moto137" type="moto_motorcycle" depart="21737.00" from="-24819999#2" to="-240348395#1"/>
    <trip id="moto138" type="moto_motorcycle" depart="21738.00" from="-227062819#2" to="23148901#1"/>
    <trip id="moto139" type="moto_motorcycle" depart="21739.00" from="107085664#0" to="24819999#2"/>
    <trip id="moto140" type="moto_motorcycle" depart="21740.00" from="305829909#1" to="-366073485#1"/>
    <trip id="moto141" type="moto_motorcycle" depart="21741.00" from="253489009#1" to="107085647#0"/>
    <trip id="moto142" type="moto_motorcycle" depart="21742.00" from="206833547#0" to="5073592#0"/>
    <trip id="moto143" type="moto_motorcycle" depart="21743.00" from="40584784" to="-216879574#4"/>
    <trip id="moto144" type="moto_motorcycle" depart="21744.00" from="178376520" to="108404032#1"/>
    <trip id="moto146" type="moto_motorcycle" depart="21746.00" from="254235290#1" to="1064398602#0"/>
    <trip id="moto147" type="moto_motorcycle" depart="21747.00" from="320252634#12" to="23137790#2"/>
    <trip id="moto148" type="moto_motorcycle" depart="21748.00" from="181503326#1" to="-127606907#1"/>
    <trip id="moto149" type="moto_motorcycle" depart="21749.00" from="-208424711#0" to="4432606#7"/>
    <trip id="moto150" type="moto_motorcycle" depart="21750.00" from="502060955#0" to="23055277#1"/>
    <trip id="moto151" type="moto_motorcycle" depart="21751.00" from="40103023#1" to="24532431#1"/>
    <trip id="moto152" type="moto_motorcycle" depart="21752.00" from="-270684568#7" to="-245941530#3"/>
    <trip id="moto153" type="moto_motorcycle" depart="21753.00" from="148357183#1" to="47214333#2"/>
    <trip id="moto154" type="moto_motorcycle" depart="21754.00" from="366073475#6" to="429104325#0"/>
    <trip id="moto155" type="moto_motorcycle" depart="21755.00" from="47214333#2" to="-37825125#6"/>
    <trip id="moto156" type="moto_motorcycle" depart="21756.00" from="-922053733#1" to="-220677168#3"/>
    <trip id="moto157" type="moto_motorcycle" depart="21757.00" from="360248211#2" to="4432610#1"/>
    <trip id="moto159" type="moto_motorcycle" depart="21759.00" from="-27245998" to="57381284"/>
    <trip id="moto160" type="moto_motorcycle" depart="21760.00" from="434327503" to="95170292#1"/>
    <trip id="moto161" type="moto_motorcycle" depart="21761.00" from="377905809#0" to="4432606#2"/>
    <trip id="moto162" type="moto_motorcycle" depart="21762.00" from="-150393267#9" to="320207734"/>
    <trip id="moto163" type="moto_motorcycle" depart="21763.00" from="150546875" to="584126367#0"/>
    <trip id="moto164" type="moto_motorcycle" depart="21764.00" from="371573876#2" to="433018233#1"/>
    <trip id="moto165" type="moto_motorcycle" depart="21765.00" from="377905809#0" to="107085650"/>
    <trip id="moto166" type="moto_motorcycle" depart="21766.00" from="364080662#0" to="-23055404#2"/>
    <trip id="moto167" type="moto_motorcycle" depart="21767.00" from="4404113#3" to="42760135#2"/>
    <trip id="moto168" type="moto_motorcycle" depart="21768.00" from="-415123460#3" to="385966809#0"/>
    <trip id="moto169" type="moto_motorcycle" depart="21769.00" from="190340312.8" to="148357182#11"/>
    <trip id="moto170" type="moto_motorcycle" depart="21770.00" from="366073475#4" to="-4492379#1"/>
    <trip id="moto171" type="moto_motorcycle" depart="21771.00" from="-150393267#5" to="-35834157#2"/>
    <trip id="moto172" type="moto_motorcycle" depart="21772.00" from="150393272#1" to="434327503"/>
    <trip id="moto173" type="moto_motorcycle" depart="21773.00" from="922053740" to="1085759981#0"/>
    <trip id="moto174" type="moto_motorcycle" depart="21774.00" from="255389622#3" to="165720108#6"/>
    <trip id="moto175" type="moto_motorcycle" depart="21775.00" from="97301282#0" to="227062822#2"/>
    <trip id="moto176" type="moto_motorcycle" depart="21776.00" from="69423517" to="-240348395#0"/>
    <trip id="moto177" type="moto_motorcycle" depart="21777.00" from="93785463#0.22" to="-320252634#12"/>
    <trip id="moto178" type="moto_motorcycle" depart="21778.00" from="898416657#0" to="107085648#1"/>
    <trip id="moto179" type="moto_motorcycle" depart="21779.00" from="-23055404#2" to="184156809"/>
    <trip id="moto180" type="moto_motorcycle" depart="21780.00" from="315426060#0" to="149951202#0"/>
    <trip id="moto181" type="moto_motorcycle" depart="21781.00" from="24909020#1" to="216879574#5"/>
    <trip id="moto182" type="moto_motorcycle" depart="21782.00" from="163419805#0" to="24377458"/>
    <trip id="moto183" type="moto_motorcycle" depart="21783.00" from="-999862407" to="29020152"/>
    <trip id="moto184" type="moto_motorcycle" depart="21784.00" from="-1055826509" to="56185651#3"/>
    <trip id="moto185" type="moto_motorcycle" depart="21785.00" from="227205268#1" to="306029065#0"/>
    <trip id="moto186" type="moto_motorcycle" depart="21786.00" from="320252634#3" to="269017614"/>
    <trip id="moto188" type="moto_motorcycle" depart="21788.00" from="269001613#0" to="150540315"/>
    <trip id="moto189" type="moto_motorcycle" depart="21789.00" from="149951200#3" to="40586130#3"/>
    <trip id="moto190" type="moto_motorcycle" depart="21790.00" from="306029065#1" to="134394675#2"/>
    <trip id="moto191" type="moto_motorcycle" depart="21791.00" from="148359950#0" to="171453050"/>
    <trip id="moto192" type="moto_motorcycle" depart="21792.00" from="165823635" to="127608718#1"/>
    <trip id="moto193" type="moto_motorcycle" depart="21793.00" from="-245941530#2" to="175558914#9"/>
    <trip id="moto194" type="moto_motorcycle" depart="21794.00" from="69852238" to="270655645#1"/>
    <trip id="moto195" type="moto_motorcycle" depart="21795.00" from="500582851#1" to="251816540"/>
    <trip id="moto196" type="moto_motorcycle" depart="21796.00" from="134394675#0" to="23055466#4"/>
    <trip id="moto197" type="moto_motorcycle" depart="21797.00" from="-102486913#0" to="115738329#0.6"/>
    <trip id="moto198" type="moto_motorcycle" depart="21798.00" from="182489957#1" to="24532277#1"/>
    <trip id="moto199" type="moto_motorcycle" depart="21799.00" from="26602743#0" to="190451409"/>
    <trip id="moto200" type="moto_motorcycle" depart="21800.00" from="187057791#1" to="-39649662#1"/>
    <trip id="moto201" type="moto_motorcycle" depart="21801.00" from="192428988#0" to="500261497"/>
    <trip id="moto202" type="moto_motorcycle" depart="21802.00" from="366073475#6" to="-306032456"/>
    <trip id="moto203" type="moto_motorcycle" depart="21803.00" from="-214586680" to="218025853#1"/>
    <trip id="moto204" type="moto_motorcycle" depart="21804.00" from="253489002#2" to="150547351#2"/>
    <trip id="moto205" type="moto_motorcycle" depart="21805.00" from="385970249#1" to="33083988#1"/>
    <trip id="moto206" type="moto_motorcycle" depart="21806.00" from="269040907#0" to="-43866170#1"/>
    <trip id="moto207" type="moto_motorcycle" depart="21807.00" from="-364071761#1" to="-150393267#9"/>
    <trip id="moto208" type="moto_motorcycle" depart="21808.00" from="-694345941#2" to="19354464#1"/>
    <trip id="moto209" type="moto_motorcycle" depart="21809.00" from="4084169" to="-206576555#1"/>
    <trip id="moto211" type="moto_motorcycle" depart="21811.00" from="-35948955#1" to="27429642#0"/>
    <trip id="moto212" type="moto_motorcycle" depart="21812.00" from="208426932#1" to="-718155368#1"/>
    <trip id="moto213" type="moto_motorcycle" depart="21813.00" from="266188220#2" to="-1101640525#1"/>
    <trip id="moto214" type="moto_motorcycle" depart="21814.00" from="33083988#0" to="359726683#1"/>
    <trip id="moto215" type="moto_motorcycle" depart="21815.00" from="-226872065#9" to="17977137"/>
    <trip id="moto216" type="moto_motorcycle" depart="21816.00" from="-319999605#0" to="8601421#1"/>
    <trip id="moto217" type="moto_motorcycle" depart="21817.00" from="218271806#1" to="-150896688#4"/>
    <trip id="moto218" type="moto_motorcycle" depart="21818.00" from="-922053733#0" to="4082065#0"/>
    <trip id="moto219" type="moto_motorcycle" depart="21819.00" from="189899508" to="371573876#1"/>
    <trip id="moto221" type="moto_motorcycle" depart="21821.00" from="245941530#1" to="7980431#1"/>
    <trip id="moto223" type="moto_motorcycle" depart="21823.00" from="306029064#0" to="215971172#0"/>
    <trip id="moto224" type="moto_motorcycle" depart="21824.00" from="39649666" to="23055466#4"/>
    <trip id="moto225" type="moto_motorcycle" depart="21825.00" from="46967474#0" to="320630988#1"/>
    <trip id="moto226" type="moto_motorcycle" depart="21826.00" from="19354458#1" to="1055823708#3"/>
    <trip id="moto227" type="moto_motorcycle" depart="21827.00" from="-778982229#0" to="254235290#3"/>
    <trip id="moto228" type="moto_motorcycle" depart="21828.00" from="358953096" to="219005866#2"/>
    <trip id="moto229" type="moto_motorcycle" depart="21829.00" from="253488950#0" to="108404027#3"/>
    <trip id="moto230" type="moto_motorcycle" depart="21830.00" from="-209308036" to="114389127#4"/>
    <trip id="moto231" type="moto_motorcycle" depart="21831.00" from="107085662#3" to="150393267#3"/>
    <trip id="moto232" type="moto_motorcycle" depart="21832.00" from="22763251#2" to="-253536521#0"/>
    <trip id="moto233" type="moto_motorcycle" depart="21833.00" from="-46963653#2" to="27283179#0"/>
    <trip id="moto234" type="moto_motorcycle" depart="21834.00" from="28745182#0" to="-189032455"/>
    <trip id="moto235" type="moto_motorcycle" depart="21835.00" from="169603174" to="229619681#1"/>
    <trip id="moto236" type="moto_motorcycle" depart="21836.00" from="175550864#0" to="-371573876#3"/>
    <trip id="moto237" type="moto_motorcycle" depart="21837.00" from="175558914#6" to="50283048#1"/>
    <trip id="moto238" type="moto_motorcycle" depart="21838.00" from="24533418" to="27315344#1"/>
    <trip id="moto239" type="moto_motorcycle" depart="21839.00" from="4235244" to="358953091#1"/>
    <trip id="moto240" type="moto_motorcycle" depart="21840.00" from="155860740" to="-1101640531#0"/>
    <trip id="moto241" type="moto_motorcycle" depart="21841.00" from="150663777" to="334457598#3"/>
    <trip id="moto242" type="moto_motorcycle" depart="21842.00" from="41270994#5" to="8067184#0"/>
    <trip id="moto243" type="moto_motorcycle" depart="21843.00" from="175558914#13" to="33083416"/>
    <trip id="moto244" type="moto_motorcycle" depart="21844.00" from="23055277#1" to="24685073"/>
    <trip id="moto245" type="moto_motorcycle" depart="21845.00" from="-40586130#2" to="-40586130#2"/>
    <trip id="moto246" type="moto_motorcycle" depart="21846.00" from="184156815" to="-150393270#6"/>
    <trip id="moto247" type="moto_motorcycle" depart="21847.00" from="150547351#4" to="270655652#1"/>
    <trip id="moto248" type="moto_motorcycle" depart="21848.00" from="165828294#0" to="-30057718#2"/>
    <trip id="moto249" type="moto_motorcycle" depart="21849.00" from="190458064#4" to="-245941530#4"/>
    <trip id="moto250" type="moto_motorcycle" depart="21850.00" from="251816583#3" to="-150393270#12"/>
    <trip id="moto251" type="moto_motorcycle" depart="21851.00" from="164152502#6" to="238870175#1"/>
    <trip id="moto252" type="moto_motorcycle" depart="21852.00" from="-150393270#11" to="255389622#7"/>
    <trip id="moto253" type="moto_motorcycle" depart="21853.00" from="-249599484#3" to="190438083#1"/>
    <trip id="moto254" type="moto_motorcycle" depart="21854.00" from="-150896688#4" to="155860730#1"/>
    <trip id="moto255" type="moto_motorcycle" depart="21855.00" from="-38152916#1" to="150393270#8"/>
    <trip id="moto256" type="moto_motorcycle" depart="21856.00" from="356166740#6" to="155860730#1"/>
    <trip id="moto257" type="moto_motorcycle" depart="21857.00" from="334457597#0" to="39649668#2"/>
    <trip id="moto258" type="moto_motorcycle" depart="21858.00" from="-96851712#0" to="-211994457#0"/>
    <trip id="moto259" type="moto_motorcycle" depart="21859.00" from="-149951202#4" to="22763251#1"/>
    <trip id="moto260" type="moto_motorcycle" depart="21860.00" from="EMk4" to="150556234#1"/>
    <trip id="moto261" type="moto_motorcycle" depart="21861.00" from="25890124" to="360785921#1"/>
    <trip id="moto262" type="moto_motorcycle" depart="21862.00" from="258979227" to="339365824"/>
    <trip id="moto263" type="moto_motorcycle" depart="21863.00" from="79683431#1" to="-364071761#3"/>
    <trip id="moto264" type="moto_motorcycle" depart="21864.00" from="-149951202#7" to="-27245673#8"/>
    <trip id="moto265" type="moto_motorcycle" depart="21865.00" from="-24549697" to="269017597#0"/>
    <trip id="moto266" type="moto_motorcycle" depart="21866.00" from="237278282#3" to="-402016793"/>
    <trip id="moto268" type="moto_motorcycle" depart="21868.00" from="-305829911#1" to="24916962#2"/>
    <trip id="moto269" type="moto_motorcycle" depart="21869.00" from="33083417" to="-240321454#1"/>
    <trip id="moto270" type="moto_motorcycle" depart="21870.00" from="387015286" to="898484255"/>
    <trip id="moto271" type="moto_motorcycle" depart="21871.00" from="-23055276#1" to="-150393270#0"/>
    <trip id="moto272" type="moto_motorcycle" depart="21872.00" from="149904354" to="270655645#1"/>
    <trip id="moto273" type="moto_motorcycle" depart="21873.00" from="8601421#1" to="165720108#0.163"/>
    <trip id="moto274" type="moto_motorcycle" depart="21874.00" from="30158429#2" to="-208426933#0"/>
    <trip id="moto275" type="moto_motorcycle" depart="21875.00" from="27247873" to="253488950#0"/>
    <trip id="moto276" type="moto_motorcycle" depart="21876.00" from="-220677168#0" to="360037734#2"/>
    <trip id="moto277" type="moto_motorcycle" depart="21877.00" from="4084172" to="24620501#0"/>
    <trip id="moto278" type="moto_motorcycle" depart="21878.00" from="-24532428#1" to="999857917#0"/>
    <trip id="moto279" type="moto_motorcycle" depart="21879.00" from="360787852#3" to="150554198#8"/>
    <trip id="moto280" type="moto_motorcycle" depart="21880.00" from="182065983#1" to="150896688#0"/>
    <trip id="moto281" type="moto_motorcycle" depart="21881.00" from="215971174#0" to="150554190#0"/>
    <trip id="moto283" type="moto_motorcycle" depart="21883.00" from="-226872065#6" to="890797552#1"/>
    <trip id="moto284" type="moto_motorcycle" depart="21884.00" from="253536519" to="39649662#2"/>
    <trip id="moto285" type="moto_motorcycle" depart="21885.00" from="288074072#1" to="184156815"/>
    <trip id="moto286" type="moto_motorcycle" depart="21886.00" from="319999605#7" to="898486015"/>
    <trip id="moto288" type="moto_motorcycle" depart="21888.00" from="227205263" to="205759810#1"/>
    <trip id="moto289" type="moto_motorcycle" depart="21889.00" from="184156814#2" to="31648190#1"/>
    <trip id="moto290" type="moto_motorcycle" depart="21890.00" from="107085654#0" to="410592139"/>
    <trip id="moto291" type="moto_motorcycle" depart="21891.00" from="39649666" to="-215925857#1"/>
    <trip id="moto292" type="moto_motorcycle" depart="21892.00" from="4432606#14" to="-694345941#2"/>
    <trip id="moto293" type="moto_motorcycle" depart="21893.00" from="190446521#2" to="251103973#3"/>
    <trip id="moto294" type="moto_motorcycle" depart="21894.00" from="155860727#1" to="-150393270#5"/>