<?xml version="1.0" encoding="UTF-8"?>

<!-- generated on 2023-08-05 17:21:40.469149 by randomTrips.py v1_16_0+1491-7f1fb8fd7bb
<configuration>
    <begin value="14400"/>
    <end value="75600"/>
    <insertion-rate value="1200.0"/>
    <net-file value="/Users/jenniferhahn/Documents/GitHub/urban_mobility_simulation/models/20230718_sumo_ma/osm.net.xml"/>
    <output-trip-file value="/Users/jenniferhahn/Documents/GitHub/urban_mobility_simulation/models/20230718_sumo_ma/truck_routes.xml"/>
    <prefix value="truck"/>
    <validate value="True"/>
    <vehicle-class value="truck"/>
</configuration>
-->

<!-- generated on 2023-08-05 17:21:32 by Eclipse SUMO duarouter Version 1.16.0
<configuration xmlns:xsi="http://www.w3.org/2001/XMLSchema-instance" xsi:noNamespaceSchemaLocation="http://sumo.dlr.de/xsd/duarouterConfiguration.xsd">

    <input>
        <net-file value="/Users/jenniferhahn/Documents/GitHub/urban_mobility_simulation/models/20230718_sumo_ma/osm.net.xml"/>
        <route-files value="/Users/jenniferhahn/Documents/GitHub/urban_mobility_simulation/models/20230718_sumo_ma/truck_routes.xml"/>
    </input>

    <output>
        <output-file value="/Users/jenniferhahn/Documents/GitHub/urban_mobility_simulation/models/20230718_sumo_ma/truck_routes.xml.tmp"/>
        <alternatives-output value="NUL"/>
        <write-trips value="true"/>
    </output>

    <time>
        <begin value="14400"/>
        <end value="75600"/>
    </time>

    <report>
        <no-warnings value="true"/>
        <ignore-errors value="true"/>
        <no-step-log value="true"/>
    </report>

</configuration>
-->

<routes xmlns:xsi="http://www.w3.org/2001/XMLSchema-instance" xsi:noNamespaceSchemaLocation="http://sumo.dlr.de/xsd/routes_file.xsd">
    <vType id="truck_truck" vClass="truck"/>
    <trip id="truck0" type="truck_truck" depart="14400.00" from="255389621#0" to="-150393268#2"/>
    <trip id="truck1" type="truck_truck" depart="14403.00" from="108404027#1" to="-43578399#0"/>
    <trip id="truck2" type="truck_truck" depart="14406.00" from="320202776" to="270655641"/>
    <trip id="truck3" type="truck_truck" depart="14409.00" from="460396653" to="-215971171#0"/>
    <trip id="truck4" type="truck_truck" depart="14412.00" from="175580620#0" to="-150393270#8"/>
    <trip id="truck5" type="truck_truck" depart="14415.00" from="-40103024" to="215971173#0"/>
    <trip id="truck6" type="truck_truck" depart="14418.00" from="-150393270#1" to="-364071761#1"/>
    <trip id="truck7" type="truck_truck" depart="14421.00" from="25873469#9" to="23055032"/>
    <trip id="truck8" type="truck_truck" depart="14424.00" from="-40586130#1" to="24549635#0"/>
    <trip id="truck9" type="truck_truck" depart="14427.00" from="377853509#0" to="-112796201#0"/>
    <trip id="truck10" type="truck_truck" depart="14430.00" from="376846888" to="27870084#2"/>
    <trip id="truck11" type="truck_truck" depart="14433.00" from="150549253#4.62.25" to="-27261757#3"/>
    <trip id="truck12" type="truck_truck" depart="14436.00" from="85287421#1" to="150549242#1"/>
    <trip id="truck13" type="truck_truck" depart="14439.00" from="-216879574#5" to="-218025840"/>
    <trip id="truck14" type="truck_truck" depart="14442.00" from="40586130#3" to="24685084#0"/>
    <trip id="truck16" type="truck_truck" depart="14448.00" from="227062822#1" to="948937423"/>
    <trip id="truck18" type="truck_truck" depart="14454.00" from="39649663" to="251816561"/>
    <trip id="truck19" type="truck_truck" depart="14457.00" from="431557289#1" to="24439729#1"/>
    <trip id="truck20" type="truck_truck" depart="14460.00" from="28646388#3" to="-150857989#1"/>
    <trip id="truck21" type="truck_truck" depart="14463.00" from="-442789059" to="121805100"/>
    <trip id="truck22" type="truck_truck" depart="14466.00" from="-210362484" to="-53040718#8"/>
    <trip id="truck23" type="truck_truck" depart="14469.00" from="-219005867#1" to="1085759979#0"/>
    <trip id="truck24" type="truck_truck" depart="14472.00" from="253536519" to="150853632"/>
    <trip id="truck25" type="truck_truck" depart="14475.00" from="150893550#1" to="-377853509#0"/>
    <trip id="truck26" type="truck_truck" depart="14478.00" from="107085648#3" to="638123367#2"/>
    <trip id="truck27" type="truck_truck" depart="14481.00" from="258194205.86" to="249599485"/>
    <trip id="truck28" type="truck_truck" depart="14484.00" from="-30845552#0" to="315426060#3"/>
    <trip id="truck29" type="truck_truck" depart="14487.00" from="-29504037" to="155860730#2"/>
    <trip id="truck31" type="truck_truck" depart="14493.00" from="23263249#2" to="270684579"/>
    <trip id="truck32" type="truck_truck" depart="14496.00" from="404190177#1" to="360248191"/>
    <trip id="truck33" type="truck_truck" depart="14499.00" from="-4492383#0" to="-150546877#2"/>
    <trip id="truck34" type="truck_truck" depart="14502.00" from="149951202#4" to="107085654#1"/>
    <trip id="truck35" type="truck_truck" depart="14505.00" from="-38139888#1" to="739924925"/>
    <trip id="truck36" type="truck_truck" depart="14508.00" from="440604787#1" to="149951202#3"/>
    <trip id="truck37" type="truck_truck" depart="14511.00" from="266188220#0" to="165343935"/>
    <trip id="truck38" type="truck_truck" depart="14514.00" from="53175067#1" to="190340310#1"/>
    <trip id="truck39" type="truck_truck" depart="14517.00" from="107085647#0" to="-7980450#1"/>
    <trip id="truck40" type="truck_truck" depart="14520.00" from="235391298" to="107085643"/>
    <trip id="truck41" type="truck_truck" depart="14523.00" from="24533443#1" to="471554672"/>
    <trip id="truck42" type="truck_truck" depart="14526.00" from="165720108#4" to="-40586130#2"/>
    <trip id="truck43" type="truck_truck" depart="14529.00" from="E8" to="216146979"/>
    <trip id="truck44" type="truck_truck" depart="14532.00" from="-216128744#1" to="-150857994#2"/>
    <trip id="truck45" type="truck_truck" depart="14535.00" from="-23055466#4" to="253488954#0"/>
    <trip id="truck46" type="truck_truck" depart="14538.00" from="366073462#1" to="175588575#0"/>
    <trip id="truck47" type="truck_truck" depart="14541.00" from="-185352101" to="161847018#1"/>
    <trip id="truck48" type="truck_truck" depart="14544.00" from="E4_y" to="226872065#9"/>
    <trip id="truck49" type="truck_truck" depart="14547.00" from="941558922" to="429104325#0"/>
    <trip id="truck50" type="truck_truck" depart="14550.00" from="-131229614#0" to="306029065#4"/>
    <trip id="truck51" type="truck_truck" depart="14553.00" from="270684568#3" to="227205258#1"/>
    <trip id="truck52" type="truck_truck" depart="14556.00" from="107085648#2" to="255389622#0"/>
    <trip id="truck53" type="truck_truck" depart="14559.00" from="-240321445#3" to="184156814#0"/>
    <trip id="truck54" type="truck_truck" depart="14562.00" from="189769943#0" to="8067185#1"/>
    <trip id="truck55" type="truck_truck" depart="14565.00" from="4404116#2" to="107085646#0"/>
    <trip id="truck56" type="truck_truck" depart="14568.00" from="211994459#0" to="-320252634#12"/>
    <trip id="truck57" type="truck_truck" depart="14571.00" from="53175060#1" to="4403852#4"/>
    <trip id="truck58" type="truck_truck" depart="14574.00" from="130540615" to="255225031#3"/>
    <trip id="truck59" type="truck_truck" depart="14577.00" from="249461334#4" to="-27245673#9"/>
    <trip id="truck60" type="truck_truck" depart="14580.00" from="35834155#0" to="22763251#1"/>
    <trip id="truck61" type="truck_truck" depart="14583.00" from="360248206#2" to="227062813#2"/>
    <trip id="truck62" type="truck_truck" depart="14586.00" from="-102486913#0" to="150393270#12"/>
    <trip id="truck63" type="truck_truck" depart="14589.00" from="-149951202#4" to="561882213#0"/>
    <trip id="truck64" type="truck_truck" depart="14592.00" from="442749531" to="39649668#1"/>
    <trip id="truck65" type="truck_truck" depart="14595.00" from="148357182#8" to="-175558914#1"/>
    <trip id="truck66" type="truck_truck" depart="14598.00" from="442545004#1" to="779043553#2"/>
    <trip id="truck67" type="truck_truck" depart="14601.00" from="-215925850#1" to="206306024"/>
    <trip id="truck68" type="truck_truck" depart="14604.00" from="-205103380#3" to="356166740#5"/>
    <trip id="truck70" type="truck_truck" depart="14610.00" from="19354464#0" to="231285503#1"/>
    <trip id="truck71" type="truck_truck" depart="14613.00" from="107085647#1" to="4404113#5"/>
    <trip id="truck72" type="truck_truck" depart="14616.00" from="176570669#1" to="-38152916#3"/>
    <trip id="truck73" type="truck_truck" depart="14619.00" from="22763251#0" to="315426064"/>
    <trip id="truck74" type="truck_truck" depart="14622.00" from="-364080659#1" to="149942614#0"/>
    <trip id="truck75" type="truck_truck" depart="14625.00" from="E4.25_y" to="25876774"/>
    <trip id="truck76" type="truck_truck" depart="14628.00" from="184227241#1" to="218271806#1"/>
    <trip id="truck77" type="truck_truck" depart="14631.00" from="-24532428#1" to="-4400844#0"/>
    <trip id="truck78" type="truck_truck" depart="14634.00" from="150549252#2" to="24549476#0"/>
    <trip id="truck79" type="truck_truck" depart="14637.00" from="-46961543" to="-415123460#0"/>
    <trip id="truck80" type="truck_truck" depart="14640.00" from="-205759810#0" to="253488997#1"/>
    <trip id="truck81" type="truck_truck" depart="14643.00" from="-4492383#0" to="5073592#0"/>
    <trip id="truck82" type="truck_truck" depart="14646.00" from="42760136" to="-205759810#1"/>
    <trip id="truck83" type="truck_truck" depart="14649.00" from="-53175159#2" to="269017594.14"/>
    <trip id="truck84" type="truck_truck" depart="14652.00" from="-39649661" to="-24620501#1"/>
    <trip id="truck85" type="truck_truck" depart="14655.00" from="630452844" to="240321454#2"/>
    <trip id="truck86" type="truck_truck" depart="14658.00" from="192398367#0" to="364080659#0"/>
    <trip id="truck87" type="truck_truck" depart="14661.00" from="376865390#1" to="-356166740#0"/>
    <trip id="truck88" type="truck_truck" depart="14664.00" from="-218025840" to="183413425"/>
    <trip id="truck89" type="truck_truck" depart="14667.00" from="178376520" to="190458064#5"/>
    <trip id="truck90" type="truck_truck" depart="14670.00" from="315426060#3" to="269040914"/>
    <trip id="truck91" type="truck_truck" depart="14673.00" from="999614640" to="-218303425"/>
    <trip id="truck93" type="truck_truck" depart="14679.00" from="431557289#1" to="-922053733#1"/>
    <trip id="truck94" type="truck_truck" depart="14682.00" from="-35014374#2" to="189764716#0"/>
    <trip id="truck95" type="truck_truck" depart="14685.00" from="175580620#0" to="1085759979#3"/>
    <trip id="truck96" type="truck_truck" depart="14688.00" from="-924549199" to="5466445#0"/>
    <trip id="truck97" type="truck_truck" depart="14691.00" from="187060049#1" to="431557289#1"/>
    <trip id="truck98" type="truck_truck" depart="14694.00" from="231285503#1" to="-151785743#0"/>
    <trip id="truck99" type="truck_truck" depart="14697.00" from="EMk2" to="40104609#1"/>
    <trip id="truck100" type="truck_truck" depart="14700.00" from="93785434" to="56185655#1"/>
    <trip id="truck101" type="truck_truck" depart="14703.00" from="4082946#1" to="-305829909#0"/>
    <trip id="truck102" type="truck_truck" depart="14706.00" from="205880175#1" to="-39649662#1"/>
    <trip id="truck103" type="truck_truck" depart="14709.00" from="165720108#9" to="-175558914#12"/>
    <trip id="truck104" type="truck_truck" depart="14712.00" from="155860727#1" to="E0_vu3"/>
    <trip id="truck105" type="truck_truck" depart="14715.00" from="107085647#1" to="364071765#0"/>
    <trip id="truck106" type="truck_truck" depart="14718.00" from="189776524" to="178376520"/>
    <trip id="truck107" type="truck_truck" depart="14721.00" from="85287421#1" to="E4_vu3"/>
    <trip id="truck108" type="truck_truck" depart="14724.00" from="23148902#8" to="305829911#1"/>
    <trip id="truck109" type="truck_truck" depart="14727.00" from="-27261757#0" to="129556174#0"/>
    <trip id="truck110" type="truck_truck" depart="14730.00" from="93785423" to="24470198"/>
    <trip id="truck111" type="truck_truck" depart="14733.00" from="229619678#0" to="33083417"/>
    <trip id="truck112" type="truck_truck" depart="14736.00" from="-171793097#0" to="24533443#1"/>
    <trip id="truck113" type="truck_truck" depart="14739.00" from="215925850#2" to="41270994#2"/>
    <trip id="truck114" type="truck_truck" depart="14742.00" from="-27315344#1" to="890797552#1"/>
    <trip id="truck115" type="truck_truck" depart="14745.00" from="-210441943" to="-334457598#0"/>
    <trip id="truck116" type="truck_truck" depart="14748.00" from="245939113#3" to="270655622"/>
    <trip id="truck117" type="truck_truck" depart="14751.00" from="-53175069#0" to="-24532348#0"/>
    <trip id="truck118" type="truck_truck" depart="14754.00" from="4492383#1" to="-778982229#0"/>
    <trip id="truck119" type="truck_truck" depart="14757.00" from="245939113#1" to="251816566#1"/>
    <trip id="truck120" type="truck_truck" depart="14760.00" from="175558914#2" to="24533443#0"/>
    <trip id="truck121" type="truck_truck" depart="14763.00" from="219005868#1" to="628505596"/>
    <trip id="truck122" type="truck_truck" depart="14766.00" from="-369239271#1" to="305325049#0"/>
    <trip id="truck123" type="truck_truck" depart="14769.00" from="-53175159#4" to="165343935"/>
    <trip id="truck124" type="truck_truck" depart="14772.00" from="269040899.42" to="134394675#0"/>
    <trip id="truck125" type="truck_truck" depart="14775.00" from="149951202#6" to="334457596"/>
    <trip id="truck126" type="truck_truck" depart="14778.00" from="-205880175#2" to="190340309"/>
    <trip id="truck127" type="truck_truck" depart="14781.00" from="E9" to="E5"/>
    <trip id="truck128" type="truck_truck" depart="14784.00" from="-206576555#1" to="-39649662#0"/>
    <trip id="truck129" type="truck_truck" depart="14787.00" from="107085647#1" to="626345991"/>
    <trip id="truck130" type="truck_truck" depart="14790.00" from="4432606#12" to="4432605"/>
    <trip id="truck131" type="truck_truck" depart="14793.00" from="150859889#0" to="-27870084#1"/>
    <trip id="truck132" type="truck_truck" depart="14796.00" from="40103022" to="28646388#1"/>
    <trip id="truck134" type="truck_truck" depart="14802.00" from="26340368#1" to="-112796201#4"/>
    <trip id="truck135" type="truck_truck" depart="14805.00" from="385966809#2" to="134394171#3"/>
    <trip id="truck136" type="truck_truck" depart="14808.00" from="269001612#3" to="692648169#0"/>
    <trip id="truck137" type="truck_truck" depart="14811.00" from="-24819999#2" to="-240348395#1"/>
    <trip id="truck138" type="truck_truck" depart="14814.00" from="-227062819#2" to="23148901#1"/>
    <trip id="truck139" type="truck_truck" depart="14817.00" from="107085664#0" to="24819999#2"/>
    <trip id="truck140" type="truck_truck" depart="14820.00" from="305829909#1" to="-366073485#1"/>
    <trip id="truck141" type="truck_truck" depart="14823.00" from="253489009#1" to="107085647#0"/>
    <trip id="truck142" type="truck_truck" depart="14826.00" from="206833547#0" to="5073592#0"/>
    <trip id="truck143" type="truck_truck" depart="14829.00" from="40584784" to="-216879574#4"/>
    <trip id="truck144" type="truck_truck" depart="14832.00" from="178376520" to="108404032#1"/>
    <trip id="truck146" type="truck_truck" depart="14838.00" from="254235290#1" to="1064398602#0"/>
    <trip id="truck147" type="truck_truck" depart="14841.00" from="320252634#12" to="23137790#2"/>
    <trip id="truck148" type="truck_truck" depart="14844.00" from="181503326#1" to="-127606907#1"/>
    <trip id="truck149" type="truck_truck" depart="14847.00" from="-208424711#0" to="4432606#7"/>
    <trip id="truck150" type="truck_truck" depart="14850.00" from="502060955#0" to="23055277#1"/>
    <trip id="truck151" type="truck_truck" depart="14853.00" from="40103023#1" to="24532431#1"/>
    <trip id="truck152" type="truck_truck" depart="14856.00" from="-270684568#7" to="-245941530#3"/>
    <trip id="truck153" type="truck_truck" depart="14859.00" from="148357183#1" to="47214333#2"/>
    <trip id="truck154" type="truck_truck" depart="14862.00" from="366073475#6" to="429104325#0"/>
    <trip id="truck155" type="truck_truck" depart="14865.00" from="47214333#2" to="-37825125#6"/>
    <trip id="truck156" type="truck_truck" depart="14868.00" from="-922053733#1" to="-220677168#3"/>
    <trip id="truck157" type="truck_truck" depart="14871.00" from="360248211#2" to="4432610#1"/>
    <trip id="truck159" type="truck_truck" depart="14877.00" from="-27245998" to="57381284"/>
    <trip id="truck160" type="truck_truck" depart="14880.00" from="434327503" to="95170292#1"/>
    <trip id="truck161" type="truck_truck" depart="14883.00" from="377905809#0" to="4432606#2"/>
    <trip id="truck162" type="truck_truck" depart="14886.00" from="-150393267#9" to="320207734"/>
    <trip id="truck163" type="truck_truck" depart="14889.00" from="150546875" to="584126367#0"/>
    <trip id="truck164" type="truck_truck" depart="14892.00" from="371573876#2" to="433018233#1"/>
    <trip id="truck165" type="truck_truck" depart="14895.00" from="377905809#0" to="107085650"/>
    <trip id="truck166" type="truck_truck" depart="14898.00" from="364080662#0" to="-23055404#2"/>
    <trip id="truck167" type="truck_truck" depart="14901.00" from="4404113#3" to="42760135#2"/>
    <trip id="truck168" type="truck_truck" depart="14904.00" from="-415123460#3" to="385966809#0"/>
    <trip id="truck169" type="truck_truck" depart="14907.00" from="190340312.8" to="148357182#11"/>
    <trip id="truck170" type="truck_truck" depart="14910.00" from="366073475#4" to="-4492379#1"/>
    <trip id="truck171" type="truck_truck" depart="14913.00" from="-150393267#5" to="-35834157#2"/>
    <trip id="truck172" type="truck_truck" depart="14916.00" from="150393272#1" to="434327503"/>
    <trip id="truck173" type="truck_truck" depart="14919.00" from="922053740" to="1085759981#0"/>
    <trip id="truck174" type="truck_truck" depart="14922.00" from="255389622#3" to="165720108#6"/>
    <trip id="truck175" type="truck_truck" depart="14925.00" from="97301282#0" to="227062822#2"/>
    <trip id="truck176" type="truck_truck" depart="14928.00" from="69423517" to="-240348395#0"/>
    <trip id="truck177" type="truck_truck" depart="14931.00" from="93785463#0.22" to="-320252634#12"/>
    <trip id="truck178" type="truck_truck" depart="14934.00" from="898416657#0" to="107085648#1"/>
    <trip id="truck179" type="truck_truck" depart="14937.00" from="-23055404#2" to="184156809"/>
    <trip id="truck180" type="truck_truck" depart="14940.00" from="315426060#0" to="149951202#0"/>
    <trip id="truck181" type="truck_truck" depart="14943.00" from="24909020#1" to="216879574#5"/>
    <trip id="truck182" type="truck_truck" depart="14946.00" from="163419805#0" to="24377458"/>
    <trip id="truck183" type="truck_truck" depart="14949.00" from="-999862407" to="29020152"/>
    <trip id="truck184" type="truck_truck" depart="14952.00" from="-1055826509" to="56185651#3"/>
    <trip id="truck185" type="truck_truck" depart="14955.00" from="227205268#1" to="306029065#0"/>
    <trip id="truck186" type="truck_truck" depart="14958.00" from="320252634#3" to="269017614"/>
    <trip id="truck188" type="truck_truck" depart="14964.00" from="269001613#0" to="150540315"/>
    <trip id="truck189" type="truck_truck" depart="14967.00" from="149951200#3" to="40586130#3"/>
    <trip id="truck190" type="truck_truck" depart="14970.00" from="306029065#1" to="134394675#2"/>
    <trip id="truck191" type="truck_truck" depart="14973.00" from="148359950#0" to="171453050"/>
    <trip id="truck192" type="truck_truck" depart="14976.00" from="165823635" to="127608718#1"/>
    <trip id="truck193" type="truck_truck" depart="14979.00" from="-245941530#2" to="175558914#9"/>
    <trip id="truck194" type="truck_truck" depart="14982.00" from="69852238" to="270655645#1"/>
    <trip id="truck195" type="truck_truck" depart="14985.00" from="500582851#1" to="251816540"/>
    <trip id="truck196" type="truck_truck" depart="14988.00" from="134394675#0" to="23055466#4"/>
    <trip id="truck197" type="truck_truck" depart="14991.00" from="-102486913#0" to="115738329#0.6"/>
    <trip id="truck198" type="truck_truck" depart="14994.00" from="182489957#1" to="24532277#1"/>
    <trip id="truck199" type="truck_truck" depart="14997.00" from="26602743#0" to="190451409"/>
    <trip id="truck200" type="truck_truck" depart="15000.00" from="187057791#1" to="-39649662#1"/>
    <trip id="truck201" type="truck_truck" depart="15003.00" from="192428988#0" to="500261497"/>
    <trip id="truck202" type="truck_truck" depart="15006.00" from="366073475#6" to="-306032456"/>
    <trip id="truck203" type="truck_truck" depart="15009.00" from="-214586680" to="218025853#1"/>
    <trip id="truck204" type="truck_truck" depart="15012.00" from="253489002#2" to="150547351#2"/>
    <trip id="truck205" type="truck_truck" depart="15015.00" from="385970249#1" to="33083988#1"/>
    <trip id="truck206" type="truck_truck" depart="15018.00" from="269040907#0" to="-43866170#1"/>
    <trip id="truck207" type="truck_truck" depart="15021.00" from="-364071761#1" to="-150393267#9"/>
    <trip id="truck208" type="truck_truck" depart="15024.00" from="-694345941#2" to="19354464#1"/>
    <trip id="truck209" type="truck_truck" depart="15027.00" from="4084169" to="-206576555#1"/>
    <trip id="truck211" type="truck_truck" depart="15033.00" from="-35948955#1" to="27429642#0"/>
    <trip id="truck212" type="truck_truck" depart="15036.00" from="208426932#1" to="-718155368#1"/>
    <trip id="truck213" type="truck_truck" depart="15039.00" from="266188220#2" to="-1101640525#1"/>
    <trip id="truck214" type="truck_truck" depart="15042.00" from="33083988#0" to="359726683#1"/>
    <trip id="truck215" type="truck_truck" depart="15045.00" from="-226872065#9" to="17977137"/>
    <trip id="truck216" type="truck_truck" depart="15048.00" from="-319999605#0" to="8601421#1"/>
    <trip id="truck217" type="truck_truck" depart="15051.00" from="218271806#1" to="-150896688#4"/>
    <trip id="truck218" type="truck_truck" depart="15054.00" from="-922053733#0" to="4082065#0"/>
    <trip id="truck219" type="truck_truck" depart="15057.00" from="189899508" to="371573876#1"/>
    <trip id="truck221" type="truck_truck" depart="15063.00" from="245941530#1" to="7980431#1"/>
    <trip id="truck223" type="truck_truck" depart="15069.00" from="306029064#0" to="215971172#0"/>
    <trip id="truck224" type="truck_truck" depart="15072.00" from="39649666" to="23055466#4"/>
    <trip id="truck225" type="truck_truck" depart="15075.00" from="46967474#0" to="320630988#1"/>
    <trip id="truck226" type="truck_truck" depart="15078.00" from="19354458#1" to="1055823708#3"/>
    <trip id="truck227" type="truck_truck" depart="15081.00" from="-778982229#0" to="254235290#3"/>
    <trip id="truck228" type="truck_truck" depart="15084.00" from="358953096" to="219005866#2"/>
    <trip id="truck229" type="truck_truck" depart="15087.00" from="253488950#0" to="108404027#3"/>
    <trip id="truck230" type="truck_truck" depart="15090.00" from="-209308036" to="114389127#4"/>
    <trip id="truck231" type="truck_truck" depart="15093.00" from="107085662#3" to="150393267#3"/>
    <trip id="truck232" type="truck_truck" depart="15096.00" from="22763251#2" to="-253536521#0"/>
    <trip id="truck233" type="truck_truck" depart="15099.00" from="-46963653#2" to="27283179#0"/>
    <trip id="truck234" type="truck_truck" depart="15102.00" from="28745182#0" to="-189032455"/>
    <trip id="truck235" type="truck_truck" depart="15105.00" from="169603174" to="229619681#1"/>
    <trip id="truck236" type="truck_truck" depart="15108.00" from="175550864#0" to="-371573876#3"/>
    <trip id="truck237" type="truck_truck" depart="15111.00" from="175558914#6" to="50283048#1"/>
    <trip id="truck238" type="truck_truck" depart="15114.00" from="24533418" to="27315344#1"/>
    <trip id="truck239" type="truck_truck" depart="15117.00" from="4235244" to="358953091#1"/>
    <trip id="truck240" type="truck_truck" depart="15120.00" from="155860740" to="-1101640531#0"/>
    <trip id="truck241" type="truck_truck" depart="15123.00" from="150663777" to="334457598#3"/>
    <trip id="truck242" type="truck_truck" depart="15126.00" from="41270994#5" to="8067184#0"/>
    <trip id="truck243" type="truck_truck" depart="15129.00" from="175558914#13" to="33083416"/>
    <trip id="truck244" type="truck_truck" depart="15132.00" from="23055277#1" to="24685073"/>
    <trip id="truck245" type="truck_truck" depart="15135.00" from="-40586130#2" to="-40586130#2"/>
    <trip id="truck246" type="truck_truck" depart="15138.00" from="184156815" to="-150393270#6"/>
    <trip id="truck247" type="truck_truck" depart="15141.00" from="150547351#4" to="270655652#1"/>
    <trip id="truck248" type="truck_truck" depart="15144.00" from="165828294#0" to="-30057718#2"/>
    <trip id="truck249" type="truck_truck" depart="15147.00" from="190458064#4" to="-245941530#4"/>
    <trip id="truck250" type="truck_truck" depart="15150.00" from="251816583#3" to="-150393270#12"/>
    <trip id="truck251" type="truck_truck" depart="15153.00" from="164152502#6" to="238870175#1"/>
    <trip id="truck252" type="truck_truck" depart="15156.00" from="-150393270#11" to="255389622#7"/>
    <trip id="truck253" type="truck_truck" depart="15159.00" from="-249599484#3" to="190438083#1"/>
    <trip id="truck254" type="truck_truck" depart="15162.00" from="-150896688#4" to="155860730#1"/>
    <trip id="truck255" type="truck_truck" depart="15165.00" from="-38152916#1" to="150393270#8"/>
    <trip id="truck256" type="truck_truck" depart="15168.00" from="356166740#6" to="155860730#1"/>
    <trip id="truck257" type="truck_truck" depart="15171.00" from="334457597#0" to="39649668#2"/>
    <trip id="truck258" type="truck_truck" depart="15174.00" from="-96851712#0" to="-211994457#0"/>
    <trip id="truck259" type="truck_truck" depart="15177.00" from="-149951202#4" to="22763251#1"/>
    <trip id="truck260" type="truck_truck" depart="15180.00" from="EMk4" to="150556234#1"/>
    <trip id="truck261" type="truck_truck" depart="15183.00" from="25890124" to="360785921#1"/>
    <trip id="truck262" type="truck_truck" depart="15186.00" from="258979227" to="339365824"/>
    <trip id="truck263" type="truck_truck" depart="15189.00" from="79683431#1" to="-364071761#3"/>
    <trip id="truck264" type="truck_truck" depart="15192.00" from="-149951202#7" to="-27245673#8"/>
    <trip id="truck265" type="truck_truck" depart="15195.00" from="-24549697" to="269017597#0"/>
    <trip id="truck266" type="truck_truck" depart="15198.00" from="237278282#3" to="-402016793"/>
    <trip id="truck268" type="truck_truck" depart="15204.00" from="-305829911#1" to="24916962#2"/>
    <trip id="truck269" type="truck_truck" depart="15207.00" from="33083417" to="-240321454#1"/>
    <trip id="truck270" type="truck_truck" depart="15210.00" from="387015286" to="898484255"/>
    <trip id="truck271" type="truck_truck" depart="15213.00" from="-23055276#1" to="-150393270#0"/>
    <trip id="truck272" type="truck_truck" depart="15216.00" from="149904354" to="270655645#1"/>
    <trip id="truck273" type="truck_truck" depart="15219.00" from="8601421#1" to="165720108#0.163"/>
    <trip id="truck274" type="truck_truck" depart="15222.00" from="30158429#2" to="-208426933#0"/>
    <trip id="truck275" type="truck_truck" depart="15225.00" from="27247873" to="253488950#0"/>
    <trip id="truck276" type="truck_truck" depart="15228.00" from="-220677168#0" to="360037734#2"/>
    <trip id="truck277" type="truck_truck" depart="15231.00" from="4084172" to="24620501#0"/>
    <trip id="truck278" type="truck_truck" depart="15234.00" from="-24532428#1" to="999857917#0"/>
    <trip id="truck279" type="truck_truck" depart="15237.00" from="360787852#3" to="150554198#8"/>
    <trip id="truck280" type="truck_truck" depart="15240.00" from="182065983#1" to="150896688#0"/>
    <trip id="truck281" type="truck_truck" depart="15243.00" from="215971174#0" to="150554190#0"/>
    <trip id="truck283" type="truck_truck" depart="15249.00" from="-226872065#6" to="890797552#1"/>
    <trip id="truck284" type="truck_truck" depart="15252.00" from="253536519" to="39649662#2"/>
    <trip id="truck285" type="truck_truck" depart="15255.00" from="288074072#1" to="184156815"/>
    <trip id="truck286" type="truck_truck" depart="15258.00" from="319999605#7" to="898486015"/>
    <trip id="truck288" type="truck_truck" depart="15264.00" from="227205263" to="205759810#1"/>
    <trip id="truck289" type="truck_truck" depart="15267.00" from="184156814#2" to="31648190#1"/>
    <trip id="truck290" type="truck_truck" depart="15270.00" from="107085654#0" to="410592139"/>
    <trip id="truck291" type="truck_truck" depart="15273.00" from="39649666" to="-215925857#1"/>
    <trip id="truck292" type="truck_truck" depart="15276.00" from="4432606#14" to="-694345941#2"/>
    <trip id="truck293" type="truck_truck" depart="15279.00" from="190446521#2" to="251103973#3"/>
    <trip id="truck294" type="truck_truck" depart="15282.00" from="155860727#1" to="-150393270#5"/>
    <trip id="truck295" type="truck_truck" depart="15285.00" from="409702804" to="-33083418#1"/>
    <trip id="truck296" type="truck_truck" depart="15288.00" from="-38152916#3" to="369239271#1"/>
    <trip id="truck297" type="truck_truck" depart="15291.00" from="150549493#0" to="4432606#11"/>
    <trip id="truck298" type="truck_truck" depart="15294.00" from="28297618#0" to="108404031#2"/>
    <trip id="truck299" type="truck_truck" depart="15297.00" from="-127606907#2" to="781419324"/>
    <trip id="truck300" type="truck_truck" depart="15300.00" from="-215925850#1" to="306029065#2"/>
    <trip id="truck301" type="truck_truck" depart="15303.00" from="206833547#0" to="35014374#2"/>
    <trip id="truck302" type="truck_truck" depart="15306.00" from="27247873" to="257675380#0"/>
    <trip id="truck303" type="truck_truck" depart="15309.00" from="207636690#1" to="366073467#1"/>