<?xml version="1.0" encoding="UTF-8"?>

<!-- generated on 2023-04-24 14:24:35.229017 by randomTrips.py v1_16_0+0000-94ec4c6cd72
<configuration>
    <end value="3600"/>
    <fringe-factor value="2"/>
    <fringe-start-attributes value="departSpeed=&quot;max&quot;"/>
    <max-distance value="8000.0"/>
    <net-file value="osm.net.xml"/>
    <period value="0.349247"/>
    <route-file value="osm.bicycle.rou.xml"/>
    <trip-attributes value="departLane=&quot;best&quot;"/>
    <output-trip-file value="osm.bicycle.trips.xml"/>
    <prefix value="bike"/>
    <validate value="True"/>
    <vclass value="bicycle"/>
    <vehicle-class value="bicycle"/>
</configuration>
-->

<!-- generated on 2023-04-24 14:24:29 by Eclipse SUMO duarouter Version 1.16.0
<configuration xmlns:xsi="http://www.w3.org/2001/XMLSchema-instance" xsi:noNamespaceSchemaLocation="http://sumo.dlr.de/xsd/duarouterConfiguration.xsd">

    <input>
        <net-file value="osm.net.xml"/>
        <route-files value="osm.bicycle.trips.xml"/>
    </input>

    <output>
        <output-file value="osm.bicycle.trips.xml.tmp"/>
        <alternatives-output value="NUL"/>
        <write-trips value="true"/>
    </output>

    <time>
        <begin value="0"/>
        <end value="3600"/>
    </time>

    <report>
        <no-warnings value="true"/>
        <ignore-errors value="true"/>
        <no-step-log value="true"/>
    </report>

</configuration>
-->

<routes xmlns:xsi="http://www.w3.org/2001/XMLSchema-instance" xsi:noNamespaceSchemaLocation="http://sumo.dlr.de/xsd/routes_file.xsd">
    <vType id="bike_bicycle" vClass="bicycle"/>
    <trip id="bike0" type="bike_bicycle" depart="0.00" departLane="best" from="240348395#2" to="-139692115#3"/>
    <trip id="bike1" type="bike_bicycle" depart="0.35" departLane="best" from="-376865405#2" to="-35134171"/>
    <trip id="bike2" type="bike_bicycle" depart="0.70" departLane="best" from="27247877" to="27244255"/>
    <trip id="bike3" type="bike_bicycle" depart="1.05" departLane="best" from="44828412#7" to="-205103380#0"/>
    <trip id="bike4" type="bike_bicycle" depart="1.40" departLane="best" from="107085658#2" to="-149951202#4"/>
    <trip id="bike5" type="bike_bicycle" depart="1.75" departLane="best" from="-29504039#1" to="191128490#1"/>
    <trip id="bike6" type="bike_bicycle" depart="2.10" departLane="best" departSpeed="max" from="-131229614#3" to="-299634628#0"/>
    <trip id="bike7" type="bike_bicycle" depart="2.44" departLane="best" from="24534170#1" to="218061157#0"/>
    <trip id="bike8" type="bike_bicycle" depart="2.79" departLane="best" departSpeed="max" from="-299637114" to="240321448#3"/>
    <trip id="bike9" type="bike_bicycle" depart="3.14" departLane="best" from="360248211#4" to="-10712593#1"/>
    <trip id="bike10" type="bike_bicycle" depart="3.49" departLane="best" from="360037734#0" to="27610888#1"/>
    <trip id="bike11" type="bike_bicycle" depart="3.84" departLane="best" from="-53573984#2" to="-255894049#1"/>
    <trip id="bike12" type="bike_bicycle" depart="4.19" departLane="best" from="79683431#1" to="-96851711#1"/>
    <trip id="bike13" type="bike_bicycle" depart="4.54" departLane="best" from="-19354456" to="-214586669"/>
    <trip id="bike14" type="bike_bicycle" depart="4.89" departLane="best" from="39649666" to="24549635#0"/>
    <trip id="bike15" type="bike_bicycle" depart="5.24" departLane="best" from="360248187#5" to="309740480#4"/>
    <trip id="bike16" type="bike_bicycle" depart="5.59" departLane="best" from="182489859" to="905263502#1"/>
    <trip id="bike17" type="bike_bicycle" depart="5.94" departLane="best" from="-851760423" to="224885819#0"/>
    <trip id="bike18" type="bike_bicycle" depart="6.29" departLane="best" from="376865360" to="251158909#1"/>
    <trip id="bike19" type="bike_bicycle" depart="6.64" departLane="best" from="415123460#1" to="235391020#0"/>
    <trip id="bike20" type="bike_bicycle" depart="6.98" departLane="best" from="269001620#0" to="-150893550#1"/>
    <trip id="bike21" type="bike_bicycle" depart="7.33" departLane="best" from="-306029065#2" to="-475170458"/>
    <trip id="bike22" type="bike_bicycle" depart="7.68" departLane="best" departSpeed="max" from="-183055815" to="-360248182#2"/>
    <trip id="bike23" type="bike_bicycle" depart="8.03" departLane="best" from="-208424711#0" to="-44828427#1"/>
    <trip id="bike24" type="bike_bicycle" depart="8.38" departLane="best" from="240321445#6" to="1085759981#1"/>
    <trip id="bike25" type="bike_bicycle" depart="8.73" departLane="best" from="-787129299#1" to="-31648190#1"/>
    <trip id="bike26" type="bike_bicycle" depart="9.08" departLane="best" from="-366073489#1" to="7656757"/>
    <trip id="bike27" type="bike_bicycle" depart="9.43" departLane="best" from="24532428#1" to="24620443#0"/>
    <trip id="bike28" type="bike_bicycle" depart="9.78" departLane="best" from="-254952124#5" to="309693140"/>
    <trip id="bike29" type="bike_bicycle" depart="10.13" departLane="best" departSpeed="max" from="-252932197#1" to="127606907#1"/>
    <trip id="bike30" type="bike_bicycle" depart="10.48" departLane="best" from="97301282#0" to="255225031#3"/>
    <trip id="bike31" type="bike_bicycle" depart="10.83" departLane="best" from="190443683#1" to="27245134#0"/>
    <trip id="bike32" type="bike_bicycle" depart="11.18" departLane="best" from="389119567#1" to="364071765#0"/>
    <trip id="bike33" type="bike_bicycle" depart="11.53" departLane="best" departSpeed="max" from="-306035262" to="-150393267#8"/>
    <trip id="bike34" type="bike_bicycle" depart="11.87" departLane="best" from="-4492379#0" to="-429104325#0"/>
    <trip id="bike35" type="bike_bicycle" depart="12.22" departLane="best" departSpeed="max" from="-27610892#1" to="7942136#0"/>
    <trip id="bike36" type="bike_bicycle" depart="12.57" departLane="best" from="43702375#3" to="-739924926"/>
    <trip id="bike37" type="bike_bicycle" depart="12.92" departLane="best" from="24608195#0" to="142259576#3"/>
    <trip id="bike38" type="bike_bicycle" depart="13.27" departLane="best" from="502060953#0" to="171452686"/>
    <trip id="bike39" type="bike_bicycle" depart="13.62" departLane="best" from="-364560741" to="-376865405#2"/>
    <trip id="bike40" type="bike_bicycle" depart="13.97" departLane="best" from="191003931#0" to="-420551633#1"/>
    <trip id="bike41" type="bike_bicycle" depart="14.32" departLane="best" from="211994460#0" to="53175067#4"/>
    <trip id="bike42" type="bike_bicycle" depart="14.67" departLane="best" from="-958060080" to="-339381135#1"/>
    <trip id="bike43" type="bike_bicycle" depart="15.02" departLane="best" from="E6_vu3" to="193326803#1"/>
    <trip id="bike44" type="bike_bicycle" depart="15.37" departLane="best" departSpeed="max" from="-192064786" to="-151785774#1"/>
    <trip id="bike45" type="bike_bicycle" depart="15.72" departLane="best" from="-215925951#1" to="253488999#3"/>
    <trip id="bike46" type="bike_bicycle" depart="16.07" departLane="best" from="350583203#0" to="150851814#2"/>
    <trip id="bike47" type="bike_bicycle" depart="16.41" departLane="best" from="-165069584" to="128158655"/>
    <trip id="bike48" type="bike_bicycle" depart="16.76" departLane="best" from="E22_y8" to="210582468#7"/>
    <trip id="bike49" type="bike_bicycle" depart="17.11" departLane="best" from="890797552#1" to="44828412#5"/>
    <trip id="bike50" type="bike_bicycle" depart="17.46" departLane="best" from="-1101640525#1" to="305824779#1"/>
    <trip id="bike51" type="bike_bicycle" depart="17.81" departLane="best" from="254952124#2" to="215971172#0"/>
    <trip id="bike52" type="bike_bicycle" depart="18.16" departLane="best" from="-366073489#0" to="255389622#1"/>
    <trip id="bike53" type="bike_bicycle" depart="18.51" departLane="best" from="-215925960" to="152929342"/>
    <trip id="bike54" type="bike_bicycle" depart="18.86" departLane="best" from="139791427#1" to="851760423"/>
    <trip id="bike55" type="bike_bicycle" depart="19.21" departLane="best" from="43702375#0" to="-420551633#2"/>
    <trip id="bike57" type="bike_bicycle" depart="19.91" departLane="best" from="499675996#3" to="459177084"/>
    <trip id="bike58" type="bike_bicycle" depart="20.26" departLane="best" from="-420551642#0" to="254957234#2"/>
    <trip id="bike59" type="bike_bicycle" depart="20.61" departLane="best" from="227062820#0" to="-254954203#0"/>
    <trip id="bike60" type="bike_bicycle" depart="20.95" departLane="best" from="305325049#1" to="216128747#1"/>
    <trip id="bike61" type="bike_bicycle" depart="21.30" departLane="best" from="320252634#10" to="210830493#5"/>
    <trip id="bike62" type="bike_bicycle" depart="21.65" departLane="best" from="-101123156" to="-856684277"/>
    <trip id="bike63" type="bike_bicycle" depart="22.00" departLane="best" from="-123554997#4" to="69851760#1"/>
    <trip id="bike64" type="bike_bicycle" depart="22.35" departLane="best" from="4400845#0" to="420551627"/>
    <trip id="bike65" type="bike_bicycle" depart="22.70" departLane="best" from="-442545005" to="-164506584#1"/>
    <trip id="bike66" type="bike_bicycle" depart="23.05" departLane="best" from="43866169#0" to="8067184#0"/>
    <trip id="bike67" type="bike_bicycle" depart="23.40" departLane="best" from="-188464152" to="18639552#4"/>
    <trip id="bike68" type="bike_bicycle" depart="23.75" departLane="best" departSpeed="max" from="-175347881#3" to="358953086"/>
    <trip id="bike69" type="bike_bicycle" depart="24.10" departLane="best" from="305829909#2" to="-240679915"/>
    <trip id="bike70" type="bike_bicycle" depart="24.45" departLane="best" from="150554195#0" to="221261311#1"/>
    <trip id="bike72" type="bike_bicycle" depart="25.15" departLane="best" from="107085666" to="-319999605#6"/>
    <trip id="bike73" type="bike_bicycle" depart="25.50" departLane="best" from="184227241#1" to="310345921#1"/>
    <trip id="bike74" type="bike_bicycle" depart="25.84" departLane="best" from="-27245673#7" to="-69726932"/>
    <trip id="bike75" type="bike_bicycle" depart="26.19" departLane="best" from="E19_y" to="263933338#2"/>
    <trip id="bike77" type="bike_bicycle" depart="26.89" departLane="best" from="-219005861" to="-351669230#2"/>
    <trip id="bike78" type="bike_bicycle" depart="27.24" departLane="best" from="-53175159#2" to="240321445#9"/>
    <trip id="bike79" type="bike_bicycle" depart="27.59" departLane="best" departSpeed="max" from="-308378841" to="-35014373#0"/>
    <trip id="bike81" type="bike_bicycle" depart="28.29" departLane="best" from="-306032645" to="556415252#1"/>
    <trip id="bike82" type="bike_bicycle" depart="28.64" departLane="best" from="408676775" to="-179527904#0"/>
    <trip id="bike83" type="bike_bicycle" depart="28.99" departLane="best" from="-320252634#2" to="270905183#0"/>
    <trip id="bike84" type="bike_bicycle" depart="29.34" departLane="best" departSpeed="max" from="-284813741#2" to="-244233310"/>
    <trip id="bike85" type="bike_bicycle" depart="29.69" departLane="best" from="61917693#0" to="23263249#1"/>
    <trip id="bike86" type="bike_bicycle" depart="30.04" departLane="best" from="150549252#2" to="369239271#2"/>
    <trip id="bike87" type="bike_bicycle" depart="30.38" departLane="best" from="360248191" to="-27610892#0"/>
    <trip id="bike88" type="bike_bicycle" depart="30.73" departLane="best" from="-204247179" to="151785781#1"/>
    <trip id="bike89" type="bike_bicycle" depart="31.08" departLane="best" from="107337519" to="175558914#9"/>
    <trip id="bike90" type="bike_bicycle" depart="31.43" departLane="best" from="27245673#1" to="27244037"/>
    <trip id="bike91" type="bike_bicycle" depart="31.78" departLane="best" from="94586305" to="-215925951#1"/>
    <trip id="bike92" type="bike_bicycle" depart="32.13" departLane="best" from="-972789502#0" to="-999857917#0"/>
    <trip id="bike93" type="bike_bicycle" depart="32.48" departLane="best" from="415123460#1" to="-38139888#1"/>
    <trip id="bike94" type="bike_bicycle" depart="32.83" departLane="best" from="-27244248#2" to="164085721#0"/>
    <trip id="bike95" type="bike_bicycle" depart="33.18" departLane="best" from="107085658#2" to="-44828577#0"/>
    <trip id="bike96" type="bike_bicycle" depart="33.53" departLane="best" from="-35134173#1" to="662611046#1"/>
    <trip id="bike97" type="bike_bicycle" depart="33.88" departLane="best" from="127607180#0" to="44828412#9"/>
    <trip id="bike98" type="bike_bicycle" depart="34.23" departLane="best" from="189765125#0" to="-156279478#1"/>
    <trip id="bike99" type="bike_bicycle" depart="34.58" departLane="best" from="Emkbike16" to="420551659#0"/>
    <trip id="bike100" type="bike_bicycle" depart="34.92" departLane="best" from="87712907#0" to="694345941#2"/>
    <trip id="bike101" type="bike_bicycle" depart="35.27" departLane="best" departSpeed="max" from="39650823#0" to="-270905181#0"/>
    <trip id="bike102" type="bike_bicycle" depart="35.62" departLane="best" departSpeed="max" from="150857526#3" to="-323036954#1"/>
    <trip id="bike103" type="bike_bicycle" depart="35.97" departLane="best" departSpeed="max" from="-96105768" to="-165069585"/>
    <trip id="bike104" type="bike_bicycle" depart="36.32" departLane="best" from="-85287421#1" to="96105767"/>
    <trip id="bike107" type="bike_bicycle" depart="37.37" departLane="best" departSpeed="max" from="79721476" to="E1_vu3"/>
    <trip id="bike108" type="bike_bicycle" depart="37.72" departLane="best" from="190340312" to="305325048#0"/>
    <trip id="bike109" type="bike_bicycle" depart="38.07" departLane="best" from="-245941530#2" to="-531548528"/>
    <trip id="bike110" type="bike_bicycle" depart="38.42" departLane="best" from="872973889" to="235391527#4"/>
    <trip id="bike111" type="bike_bicycle" depart="38.77" departLane="best" from="185580084#1" to="334457596"/>
    <trip id="bike112" type="bike_bicycle" depart="39.12" departLane="best" departSpeed="max" from="-163196517#1" to="237029931#0"/>
    <trip id="bike113" type="bike_bicycle" depart="39.46" departLane="best" from="163235103#2" to="4420855#1"/>
    <trip id="bike114" type="bike_bicycle" depart="39.81" departLane="best" from="-24685071" to="87712941#0"/>
    <trip id="bike115" type="bike_bicycle" depart="40.16" departLane="best" from="-183972017" to="-27246283#1"/>
    <trip id="bike116" type="bike_bicycle" depart="40.51" departLane="best" from="218025841" to="27244248#5"/>
    <trip id="bike117" type="bike_bicycle" depart="40.86" departLane="best" departSpeed="max" from="-319028402" to="-235388715#3"/>
    <trip id="bike118" type="bike_bicycle" depart="41.21" departLane="best" from="44827812#6" to="-376865396#2"/>
    <trip id="bike119" type="bike_bicycle" depart="41.56" departLane="best" from="217400447" to="251816543"/>
    <trip id="bike120" type="bike_bicycle" depart="41.91" departLane="best" from="107085646#1" to="237023442#0"/>
    <trip id="bike121" type="bike_bicycle" depart="42.26" departLane="best" from="175347881#1" to="744289340"/>
    <trip id="bike122" type="bike_bicycle" depart="42.61" departLane="best" from="-27245695" to="300068767#5"/>
    <trip id="bike123" type="bike_bicycle" depart="42.96" departLane="best" from="-323017515" to="147683979#0"/>
    <trip id="bike124" type="bike_bicycle" depart="43.31" departLane="best" from="253488944" to="-53573984#3"/>
    <trip id="bike125" type="bike_bicycle" depart="43.66" departLane="best" from="-4492384#1" to="35014373#1"/>
    <trip id="bike126" type="bike_bicycle" depart="44.01" departLane="best" departSpeed="max" from="-175559168" to="169689363.14"/>
    <trip id="bike127" type="bike_bicycle" depart="44.35" departLane="best" from="EMk1" to="E22_y8"/>
    <trip id="bike128" type="bike_bicycle" depart="44.70" departLane="best" departSpeed="max" from="-175562380" to="-320252634#8"/>
    <trip id="bike130" type="bike_bicycle" depart="45.40" departLane="best" from="4404113#2" to="46963653#1"/>
    <trip id="bike131" type="bike_bicycle" depart="45.75" departLane="best" departSpeed="max" from="-779604429" to="-263933334#0"/>
    <trip id="bike132" type="bike_bicycle" depart="46.10" departLane="best" from="377905808#2" to="284813741#2"/>
    <trip id="bike133" type="bike_bicycle" depart="46.45" departLane="best" from="227441536#1" to="97142258"/>
    <trip id="bike134" type="bike_bicycle" depart="46.80" departLane="best" from="245939113#1" to="-1101405928#2"/>
    <trip id="bike137" type="bike_bicycle" depart="47.85" departLane="best" from="-235388715#0" to="-229591993#2"/>
    <trip id="bike138" type="bike_bicycle" depart="48.20" departLane="best" from="-211994459#1" to="226872060#3"/>
    <trip id="bike139" type="bike_bicycle" depart="48.55" departLane="best" from="-376865306#11" to="24554287"/>
    <trip id="bike140" type="bike_bicycle" depart="48.89" departLane="best" from="27134353#2" to="-302130843#0"/>
    <trip id="bike141" type="bike_bicycle" depart="49.24" departLane="best" from="238874754" to="-420551633#6"/>
    <trip id="bike142" type="bike_bicycle" depart="49.59" departLane="best" from="150890236#5" to="556415252#0"/>
    <trip id="bike143" type="bike_bicycle" depart="49.94" departLane="best" from="39649661" to="-209308037#4"/>
    <trip id="bike144" type="bike_bicycle" depart="50.29" departLane="best" from="107337519" to="-44828412#2"/>
    <trip id="bike145" type="bike_bicycle" depart="50.64" departLane="best" from="-102486913#3" to="360248211#1"/>
    <trip id="bike146" type="bike_bicycle" depart="50.99" departLane="best" from="240321448#2" to="-420551597"/>
    <trip id="bike147" type="bike_bicycle" depart="51.34" departLane="best" from="27418199#1" to="223859973"/>
    <trip id="bike148" type="bike_bicycle" depart="51.69" departLane="best" from="1085759979#3" to="-112796201#3"/>
    <trip id="bike149" type="bike_bicycle" depart="52.04" departLane="best" from="-178081901#3" to="48244127#1"/>
    <trip id="bike150" type="bike_bicycle" depart="52.39" departLane="best" from="462537200#1" to="218279123"/>
    <trip id="bike151" type="bike_bicycle" depart="52.74" departLane="best" from="377905809#4" to="23566451#1"/>
    <trip id="bike152" type="bike_bicycle" depart="53.09" departLane="best" from="-240679945#1" to="-240348395#5"/>
    <trip id="bike153" type="bike_bicycle" depart="53.43" departLane="best" from="-443430078" to="53175159#1"/>
    <trip id="bike154" type="bike_bicycle" depart="53.78" departLane="best" departSpeed="max" from="356166742" to="44828412#4"/>
    <trip id="bike155" type="bike_bicycle" depart="54.13" departLane="best" departSpeed="max" from="45746492" to="-319027741"/>
    <trip id="bike156" type="bike_bicycle" depart="54.48" departLane="best" from="-35134171" to="-216128747#0"/>
    <trip id="bike157" type="bike_bicycle" depart="54.83" departLane="best" from="320630988#1" to="488626362"/>
    <trip id="bike158" type="bike_bicycle" depart="55.18" departLane="best" from="-E8_vu3" to="251816568"/>
    <trip id="bike159" type="bike_bicycle" depart="55.53" departLane="best" from="-245941530#0" to="69851767"/>
    <trip id="bike160" type="bike_bicycle" depart="55.88" departLane="best" from="420551633#4" to="922576604#1"/>
    <trip id="bike161" type="bike_bicycle" depart="56.23" departLane="best" from="360787852#2" to="475170458"/>
    <trip id="bike162" type="bike_bicycle" depart="56.58" departLane="best" departSpeed="max" from="-130540631" to="320202776"/>
    <trip id="bike163" type="bike_bicycle" depart="56.93" departLane="best" departSpeed="max" from="-500582852" to="724854350#1"/>
    <trip id="bike164" type="bike_bicycle" depart="57.28" departLane="best" from="35899344#7" to="44828692#2"/>
    <trip id="bike165" type="bike_bicycle" depart="57.63" departLane="best" from="360787852#2" to="-421517196#1"/>
    <trip id="bike166" type="bike_bicycle" depart="57.98" departLane="best" from="334457598#0" to="-219005862"/>
    <trip id="bike167" type="bike_bicycle" depart="58.32" departLane="best" from="429104325#1" to="44827812#1"/>
    <trip id="bike168" type="bike_bicycle" depart="58.67" departLane="best" from="-300068767#4" to="40103023#0"/>
    <trip id="bike169" type="bike_bicycle" depart="59.02" departLane="best" from="149352823#0" to="-603995680"/>
    <trip id="bike170" type="bike_bicycle" depart="59.37" departLane="best" from="356166740#5" to="-358953080"/>
    <trip id="bike171" type="bike_bicycle" depart="59.72" departLane="best" from="-130292995#2" to="-28297618#1"/>
    <trip id="bike172" type="bike_bicycle" depart="60.07" departLane="best" departSpeed="max" from="-488626362" to="44828709"/>
    <trip id="bike173" type="bike_bicycle" depart="60.42" departLane="best" from="860204581#0" to="-44828577#5"/>
    <trip id="bike174" type="bike_bicycle" depart="60.77" departLane="best" from="240679935#0" to="149942614#3"/>
    <trip id="bike175" type="bike_bicycle" depart="61.12" departLane="best" from="930192518" to="215925961#4"/>
    <trip id="bike176" type="bike_bicycle" depart="61.47" departLane="best" from="64973069#0" to="-229239405"/>
    <trip id="bike178" type="bike_bicycle" depart="62.17" departLane="best" from="824877555#0" to="-420551649"/>
    <trip id="bike179" type="bike_bicycle" depart="62.52" departLane="best" from="-214780045" to="152929341#2"/>
    <trip id="bike180" type="bike_bicycle" depart="62.86" departLane="best" from="27245133#0" to="-69851760#0"/>
    <trip id="bike181" type="bike_bicycle" depart="63.21" departLane="best" from="226988730#1" to="194299362"/>
    <trip id="bike182" type="bike_bicycle" depart="63.56" departLane="best" from="-898245504#0" to="235390939#1"/>
    <trip id="bike183" type="bike_bicycle" depart="63.91" departLane="best" departSpeed="max" from="-358953090" to="288862304#1"/>
    <trip id="bike184" type="bike_bicycle" depart="64.26" departLane="best" from="-102152771#1" to="690903767"/>
    <trip id="bike185" type="bike_bicycle" depart="64.61" departLane="best" from="183657245#1" to="305823735"/>
    <trip id="bike186" type="bike_bicycle" depart="64.96" departLane="best" from="27429644#2" to="27134337"/>
    <trip id="bike187" type="bike_bicycle" depart="65.31" departLane="best" departSpeed="max" from="-744253800#1" to="-178081901#3"/>
    <trip id="bike188" type="bike_bicycle" depart="65.66" departLane="best" from="251103973#3" to="-900644913"/>
    <trip id="bike189" type="bike_bicycle" depart="66.01" departLane="best" from="-44828709" to="4400845#1"/>
    <trip id="bike191" type="bike_bicycle" depart="66.71" departLane="best" from="-44828412#10" to="150546878#0"/>
    <trip id="bike192" type="bike_bicycle" depart="67.06" departLane="best" departSpeed="max" from="-972789501" to="-524765355"/>
    <trip id="bike193" type="bike_bicycle" depart="67.40" departLane="best" from="-227062819#0" to="150834642#1"/>
    <trip id="bike194" type="bike_bicycle" depart="67.75" departLane="best" from="659292417#0" to="27244831"/>
    <trip id="bike195" type="bike_bicycle" depart="68.10" departLane="best" from="46022759#0" to="249599484#3"/>
    <trip id="bike196" type="bike_bicycle" depart="68.45" departLane="best" from="-429065350#0" to="220677168#2"/>
    <trip id="bike197" type="bike_bicycle" depart="68.80" departLane="best" from="-101123155" to="-46022828"/>
    <trip id="bike198" type="bike_bicycle" depart="69.15" departLane="best" from="112796201#0" to="235391749"/>
    <trip id="bike199" type="bike_bicycle" depart="69.50" departLane="best" from="245941530#3" to="175556900#1"/>
    <trip id="bike200" type="bike_bicycle" depart="69.85" departLane="best" departSpeed="max" from="127319591" to="-323036954#0"/>
    <trip id="bike202" type="bike_bicycle" depart="70.55" departLane="best" departSpeed="max" from="356166742" to="-27244039"/>
    <trip id="bike203" type="bike_bicycle" depart="70.90" departLane="best" from="-187628769#1" to="199383409#2"/>
    <trip id="bike204" type="bike_bicycle" depart="71.25" departLane="best" from="238871711#0" to="-94586280#2"/>
    <trip id="bike205" type="bike_bicycle" depart="71.60" departLane="best" from="366073469#1" to="35014371#0"/>
    <trip id="bike206" type="bike_bicycle" depart="71.94" departLane="best" from="253488970#0" to="-351669230#2"/>
    <trip id="bike207" type="bike_bicycle" depart="72.29" departLane="best" departSpeed="max" from="-27245131#1" to="-134396877"/>
    <trip id="bike208" type="bike_bicycle" depart="72.64" departLane="best" departSpeed="max" from="-335090751#1" to="181490370#1"/>
    <trip id="bike209" type="bike_bicycle" depart="72.99" departLane="best" from="398942405" to="-183654631"/>
    <trip id="bike210" type="bike_bicycle" depart="73.34" departLane="best" from="1038224266#0" to="253535663#0"/>
    <trip id="bike211" type="bike_bicycle" depart="73.69" departLane="best" from="-27244832#2" to="27418198#2"/>
    <trip id="bike212" type="bike_bicycle" depart="74.04" departLane="best" from="151789087#1" to="-376846890#1"/>
    <trip id="bike213" type="bike_bicycle" depart="74.39" departLane="best" from="24608196#4" to="-104363155#1"/>
    <trip id="bike215" type="bike_bicycle" depart="75.09" departLane="best" from="-211994457#0" to="150857995#0"/>
    <trip id="bike216" type="bike_bicycle" depart="75.44" departLane="best" from="-263860659#0" to="86202842"/>
    <trip id="bike217" type="bike_bicycle" depart="75.79" departLane="best" from="165849631" to="-155243538"/>
    <trip id="bike218" type="bike_bicycle" depart="76.14" departLane="best" from="-350583204#3" to="4400845#4"/>
    <trip id="bike219" type="bike_bicycle" depart="76.49" departLane="best" departSpeed="max" from="142248731#0" to="38152916#2"/>
    <trip id="bike220" type="bike_bicycle" depart="76.83" departLane="best" from="251816549" to="972789502#1"/>
    <trip id="bike221" type="bike_bicycle" depart="77.18" departLane="best" from="218025853#2" to="833735832"/>
    <trip id="bike222" type="bike_bicycle" depart="77.53" departLane="best" from="44828412#13" to="24856083"/>
    <trip id="bike223" type="bike_bicycle" depart="77.88" departLane="best" from="27244043" to="191003931#1"/>
    <trip id="bike224" type="bike_bicycle" depart="78.23" departLane="best" from="376865396#0" to="220677168#1"/>
    <trip id="bike225" type="bike_bicycle" depart="78.58" departLane="best" from="44828761#3" to="33083165#0"/>
    <trip id="bike226" type="bike_bicycle" depart="78.93" departLane="best" from="150554193#1" to="-402016813#0"/>
    <trip id="bike227" type="bike_bicycle" depart="79.28" departLane="best" from="-35014373#3" to="254954208#0"/>
    <trip id="bike228" type="bike_bicycle" depart="79.63" departLane="best" from="305829909#2" to="206576555#0"/>
    <trip id="bike229" type="bike_bicycle" depart="79.98" departLane="best" from="235390939#3" to="-4432617"/>
    <trip id="bike230" type="bike_bicycle" depart="80.33" departLane="best" from="-181337926#0" to="-46022378#0"/>
    <trip id="bike231" type="bike_bicycle" depart="80.68" departLane="best" from="-376846890#0" to="-80599432#2"/>
    <trip id="bike232" type="bike_bicycle" depart="81.03" departLane="best" from="185574410#1" to="-24608191#0"/>
    <trip id="bike233" type="bike_bicycle" depart="81.37" departLane="best" departSpeed="max" from="-309693141" to="27261757#0"/>
    <trip id="bike234" type="bike_bicycle" depart="81.72" departLane="best" from="269017597#1" to="-175347881#0"/>
    <trip id="bike235" type="bike_bicycle" depart="82.07" departLane="best" from="100442337#7" to="217387501"/>
    <trip id="bike236" type="bike_bicycle" depart="82.42" departLane="best" from="1039835952" to="-306032456"/>
    <trip id="bike237" type="bike_bicycle" depart="82.77" departLane="best" from="107085648#1" to="556415250"/>
    <trip id="bike238" type="bike_bicycle" depart="83.12" departLane="best" from="210830493#5" to="27391700"/>
    <trip id="bike239" type="bike_bicycle" depart="83.47" departLane="best" from="404599857#0" to="35951507#1"/>
    <trip id="bike241" type="bike_bicycle" depart="84.17" departLane="best" from="-607485823" to="350576238#3"/>
    <trip id="bike242" type="bike_bicycle" depart="84.52" departLane="best" departSpeed="max" from="402016810#0" to="851760422"/>
    <trip id="bike243" type="bike_bicycle" depart="84.87" departLane="best" from="107085646#0" to="332237966"/>
    <trip id="bike244" type="bike_bicycle" depart="85.22" departLane="best" from="187628743#1" to="24549476#0"/>
    <trip id="bike245" type="bike_bicycle" depart="85.57" departLane="best" departSpeed="max" from="-299637114" to="-35014371#0"/>
    <trip id="bike246" type="bike_bicycle" depart="85.91" departLane="best" from="121817387#2" to="-149951200#2"/>
    <trip id="bike247" type="bike_bicycle" depart="86.26" departLane="best" from="-53040718#3" to="27244832#3"/>
    <trip id="bike248" type="bike_bicycle" depart="86.61" departLane="best" departSpeed="max" from="-998974820#1" to="-270684576#0"/>
    <trip id="bike249" type="bike_bicycle" depart="86.96" departLane="best" from="150393270#5" to="-240348395#6"/>
    <trip id="bike250" type="bike_bicycle" depart="87.31" departLane="best" from="23263282" to="-142248731#1"/>
    <trip id="bike251" type="bike_bicycle" depart="87.66" departLane="best" from="-922053739" to="229679022"/>
    <trip id="bike252" type="bike_bicycle" depart="88.01" departLane="best" from="-134394675#2" to="255392212"/>
    <trip id="bike253" type="bike_bicycle" depart="88.36" departLane="best" departSpeed="max" from="-235391298" to="175347881#1"/>
    <trip id="bike254" type="bike_bicycle" depart="88.71" departLane="best" from="-151785774#3" to="123699908#0"/>
    <trip id="bike255" type="bike_bicycle" depart="89.06" departLane="best" from="-279980680" to="-87712941#1"/>
    <trip id="bike256" type="bike_bicycle" depart="89.41" departLane="best" from="302130842#1" to="124541786"/>
    <trip id="bike257" type="bike_bicycle" depart="89.76" departLane="best" from="28745182#0" to="420551627"/>