<?xml version="1.0" encoding="UTF-8"?>

<!-- generated on 2023-04-24 14:23:38.451263 by randomTrips.py v1_16_0+0000-94ec4c6cd72
<configuration>
    <end value="3600"/>
    <fringe-factor value="1"/>
    <max-distance value="2000.0"/>
    <net-file value="osm.net.xml"/>
    <pedestrians value="True"/>
    <period value="0.21322"/>
    <route-file value="osm.pedestrian.rou.xml"/>
    <output-trip-file value="osm.pedestrian.trips.xml"/>
    <prefix value="ped"/>
    <vehicle-class value="pedestrian"/>
</configuration>
-->

<routes xmlns:xsi="http://www.w3.org/2001/XMLSchema-instance" xsi:noNamespaceSchemaLocation="http://sumo.dlr.de/xsd/routes_file.xsd">
    <vType id="ped_pedestrian" vClass="pedestrian"/>
    <person id="ped0" depart="0.00" type="ped_pedestrian">
        <walk from="268931658" to="-139692115#5"/>
    </person>
    <person id="ped1" depart="0.21" type="ped_pedestrian">
        <walk from="349836788" to="279980676"/>
    </person>
    <person id="ped2" depart="0.43" type="ped_pedestrian">
        <walk from="53175159#2" to="-216146981#2"/>
    </person>
    <person id="ped3" depart="0.64" type="ped_pedestrian">
        <walk from="165069584" to="-150549253#4"/>
    </person>
    <person id="ped4" depart="0.85" type="ped_pedestrian">
        <walk from="-420551633#1" to="208426933#0"/>
    </person>
    <person id="ped5" depart="1.07" type="ped_pedestrian">
        <walk from="-149942614#1" to="-374615109"/>
    </person>
    <person id="ped6" depart="1.28" type="ped_pedestrian">
        <walk from="27244032" to="228002788"/>
    </person>
    <person id="ped7" depart="1.49" type="ped_pedestrian">
        <walk from="-420551649" to="24608228"/>
    </person>
    <person id="ped8" depart="1.71" type="ped_pedestrian">
        <walk from="401214865" to="-105605386"/>
    </person>
    <person id="ped9" depart="1.92" type="ped_pedestrian">
        <walk from="397714305#0" to="300056810"/>
    </person>
    <person id="ped10" depart="2.13" type="ped_pedestrian">
        <walk from="122000766#0" to="-28143932"/>
    </person>
    <person id="ped11" depart="2.35" type="ped_pedestrian">
        <walk from="854917825" to="119894682"/>
    </person>
    <person id="ped12" depart="2.56" type="ped_pedestrian">
        <walk from="40103022" to="336500791"/>
    </person>
    <person id="ped13" depart="2.77" type="ped_pedestrian">
        <walk from="227062816" to="903554045"/>
    </person>
    <person id="ped14" depart="2.99" type="ped_pedestrian">
        <walk from="150694609" to="23137793#4"/>
    </person>
    <person id="ped15" depart="3.20" type="ped_pedestrian">
        <walk from="42465480" to="254498204"/>
    </person>
    <person id="ped16" depart="3.41" type="ped_pedestrian">
        <walk from="-4404115#0" to="-960014903"/>
    </person>
    <person id="ped17" depart="3.62" type="ped_pedestrian">
        <walk from="-210582468#7" to="-44828412#5"/>
    </person>
    <person id="ped18" depart="3.84" type="ped_pedestrian">
        <walk from="-232947463#1" to="-86202842"/>
    </person>
    <person id="ped19" depart="4.05" type="ped_pedestrian">
        <walk from="267411754#4" to="143384153"/>
    </person>
    <person id="ped20" depart="4.26" type="ped_pedestrian">
        <walk from="27134173" to="253539339#3"/>
    </person>
    <person id="ped21" depart="4.48" type="ped_pedestrian">
        <walk from="-319999605#4" to="335980510#2"/>
    </person>
    <person id="ped22" depart="4.69" type="ped_pedestrian">
        <walk from="-300068767#5" to="150694611#7"/>
    </person>
    <person id="ped23" depart="4.90" type="ped_pedestrian">
        <walk from="97301289#1" to="268931671"/>
    </person>
    <person id="ped24" depart="5.12" type="ped_pedestrian">
        <walk from="232947458#1" to="28646388#3"/>
    </person>
    <person id="ped25" depart="5.33" type="ped_pedestrian">
        <walk from="443046537#5" to="376865290#1"/>
    </person>
    <person id="ped26" depart="5.54" type="ped_pedestrian">
        <walk from="-4432606#10" to="-150554198#7"/>
    </person>
    <person id="ped27" depart="5.76" type="ped_pedestrian">
        <walk from="-39649666" to="773744301"/>
    </person>
    <person id="ped28" depart="5.97" type="ped_pedestrian">
        <walk from="499675996#3" to="1064398602#0"/>
    </person>
    <person id="ped29" depart="6.18" type="ped_pedestrian">
        <walk from="27244832#12" to="151791264#3"/>
    </person>
    <person id="ped30" depart="6.40" type="ped_pedestrian">
        <walk from="64973069#3" to="183657245#1"/>
    </person>
    <person id="ped31" depart="6.61" type="ped_pedestrian">
        <walk from="235389175#1" to="-690790196"/>
    </person>
    <person id="ped32" depart="6.82" type="ped_pedestrian">
        <walk from="24534182" to="56185655#1"/>
    </person>
    <person id="ped33" depart="7.04" type="ped_pedestrian">
        <walk from="E7_y" to="211731682"/>
    </person>
    <person id="ped34" depart="7.25" type="ped_pedestrian">
        <walk from="-219005869" to="-163773296#3"/>
    </person>
    <person id="ped35" depart="7.46" type="ped_pedestrian">
        <walk from="-240679945#0" to="257675380#1"/>
    </person>
    <person id="ped36" depart="7.68" type="ped_pedestrian">
        <walk from="39316795#1" to="165069586#1"/>
    </person>
    <person id="ped37" depart="7.89" type="ped_pedestrian">
        <walk from="901506733#1" to="461153870"/>
    </person>
    <person id="ped38" depart="8.10" type="ped_pedestrian">
        <walk from="-108404028" to="325363711#1"/>
    </person>
    <person id="ped39" depart="8.32" type="ped_pedestrian">
        <walk from="284813738#3" to="227062821#0"/>
    </person>
    <person id="ped40" depart="8.53" type="ped_pedestrian">
        <walk from="-739924927#2" to="268931687"/>
    </person>
    <person id="ped41" depart="8.74" type="ped_pedestrian">
        <walk from="-24470195#1" to="172808749"/>
    </person>
    <person id="ped42" depart="8.96" type="ped_pedestrian">
        <walk from="180598060#8" to="843681078#1"/>
    </person>
    <person id="ped43" depart="9.17" type="ped_pedestrian">
        <walk from="1012829104#1" to="268877847"/>
    </person>
    <person id="ped44" depart="9.38" type="ped_pedestrian">
        <walk from="253539339#1" to="-27287268"/>
    </person>
    <person id="ped45" depart="9.59" type="ped_pedestrian">
        <walk from="360248215#1" to="227441541"/>
    </person>
    <person id="ped46" depart="9.81" type="ped_pedestrian">
        <walk from="376865396#0" to="223139847"/>
    </person>
    <person id="ped47" depart="10.02" type="ped_pedestrian">
        <walk from="-129556171" to="724854349#0"/>
    </person>
    <person id="ped48" depart="10.23" type="ped_pedestrian">
        <walk from="502060954" to="431889849#1"/>
    </person>
    <person id="ped49" depart="10.45" type="ped_pedestrian">
        <walk from="1034914721" to="-175563728#4"/>
    </person>
    <person id="ped50" depart="10.66" type="ped_pedestrian">
        <walk from="500582851#0" to="79721420#1"/>
    </person>
    <person id="ped51" depart="10.87" type="ped_pedestrian">
        <walk from="-215971175#1" to="190812637#1"/>
    </person>
    <person id="ped52" depart="11.09" type="ped_pedestrian">
        <walk from="-191128494" to="360248187#5"/>
    </person>
    <person id="ped53" depart="11.30" type="ped_pedestrian">
        <walk from="364080659#0" to="-255389621#3"/>
    </person>
    <person id="ped54" depart="11.51" type="ped_pedestrian">
        <walk from="188287272" to="230571244"/>
    </person>
    <person id="ped55" depart="11.73" type="ped_pedestrian">
        <walk from="-69851760#0" to="496350066"/>
    </person>
    <person id="ped56" depart="11.94" type="ped_pedestrian">
        <walk from="165343935" to="-398942400"/>
    </person>
    <person id="ped57" depart="12.15" type="ped_pedestrian">
        <walk from="-376865358" to="104229437#0"/>
    </person>
    <person id="ped58" depart="12.37" type="ped_pedestrian">
        <walk from="-251987384#1" to="-43702375#0"/>
    </person>
    <person id="ped59" depart="12.58" type="ped_pedestrian">
        <walk from="121817389#1" to="24608195#1"/>
    </person>
    <person id="ped60" depart="12.79" type="ped_pedestrian">
        <walk from="-193582128#2" to="263208981#2"/>
    </person>
    <person id="ped61" depart="13.01" type="ped_pedestrian">
        <walk from="-4432606#1" to="60169838"/>
    </person>
    <person id="ped62" depart="13.22" type="ped_pedestrian">
        <walk from="46022378#3" to="-193582128#0"/>
    </person>
    <person id="ped63" depart="13.43" type="ped_pedestrian">
        <walk from="-459177084" to="27391705#0"/>
    </person>
    <person id="ped64" depart="13.65" type="ped_pedestrian">
        <walk from="-403295830" to="-263933337"/>
    </person>
    <person id="ped65" depart="13.86" type="ped_pedestrian">
        <walk from="741029709#0" to="237278681#2"/>
    </person>
    <person id="ped66" depart="14.07" type="ped_pedestrian">
        <walk from="-230152974" to="169690255"/>
    </person>
    <person id="ped67" depart="14.29" type="ped_pedestrian">
        <walk from="165823633#0" to="185578378#3"/>
    </person>
    <person id="ped68" depart="14.50" type="ped_pedestrian">
        <walk from="335980510#1" to="27429648#1"/>
    </person>
    <person id="ped69" depart="14.71" type="ped_pedestrian">
        <walk from="95170292#1" to="-230602997#2"/>
    </person>
    <person id="ped70" depart="14.93" type="ped_pedestrian">
        <walk from="162515571" to="122000756"/>
    </person>
    <person id="ped71" depart="15.14" type="ped_pedestrian">
        <walk from="461177220#1" to="-51909568#0"/>
    </person>
    <person id="ped72" depart="15.35" type="ped_pedestrian">
        <walk from="165069584" to="-867790500#1"/>
    </person>
    <person id="ped73" depart="15.57" type="ped_pedestrian">
        <walk from="-531548528" to="69727096"/>
    </person>
    <person id="ped74" depart="15.78" type="ped_pedestrian">
        <walk from="175491099" to="461176705#1"/>
    </person>
    <person id="ped75" depart="15.99" type="ped_pedestrian">
        <walk from="230602993" to="-165825316#0"/>
    </person>
    <person id="ped76" depart="16.20" type="ped_pedestrian">
        <walk from="En3" to="43866170#1"/>
    </person>
    <person id="ped77" depart="16.42" type="ped_pedestrian">
        <walk from="898411444#0" to="69851760#0"/>
    </person>
    <person id="ped78" depart="16.63" type="ped_pedestrian">
        <walk from="150694611#2" to="957641406"/>
    </person>
    <person id="ped79" depart="16.84" type="ped_pedestrian">
        <walk from="-69851760#1" to="38435455"/>
    </person>
    <person id="ped80" depart="17.06" type="ped_pedestrian">
        <walk from="181503324" to="165343934"/>
    </person>
    <person id="ped81" depart="17.27" type="ped_pedestrian">
        <walk from="854928372" to="E2_n2"/>
    </person>
    <person id="ped82" depart="17.48" type="ped_pedestrian">
        <walk from="232947445" to="320252634#10"/>
    </person>
    <person id="ped83" depart="17.70" type="ped_pedestrian">
        <walk from="-27610892#1" to="100442337#6"/>
    </person>
    <person id="ped84" depart="17.91" type="ped_pedestrian">
        <walk from="898348494#2" to="24149326#1"/>
    </person>
    <person id="ped85" depart="18.12" type="ped_pedestrian">
        <walk from="227991189#5" to="356166741#1"/>
    </person>
    <person id="ped86" depart="18.34" type="ped_pedestrian">
        <walk from="-175563641#0" to="24534083#1"/>
    </person>
    <person id="ped87" depart="18.55" type="ped_pedestrian">
        <walk from="206833543" to="454290001#0"/>
    </person>
    <person id="ped88" depart="18.76" type="ped_pedestrian">
        <walk from="-28646387#0" to="860204581#4"/>
    </person>
    <person id="ped89" depart="18.98" type="ped_pedestrian">
        <walk from="-210585864#0" to="-35948955#1"/>
    </person>
    <person id="ped90" depart="19.19" type="ped_pedestrian">
        <walk from="25099320#3" to="276261571#13"/>
    </person>
    <person id="ped91" depart="19.40" type="ped_pedestrian">
        <walk from="-44828708" to="-24922594#0"/>
    </person>
    <person id="ped92" depart="19.62" type="ped_pedestrian">
        <walk from="531717064" to="-499675996#3"/>
    </person>
    <person id="ped93" depart="19.83" type="ped_pedestrian">
        <walk from="164044469" to="24533418"/>
    </person>
    <person id="ped94" depart="20.04" type="ped_pedestrian">
        <walk from="107085647#2" to="358953075#7"/>
    </person>
    <person id="ped95" depart="20.26" type="ped_pedestrian">
        <walk from="En0" to="E3_vu3"/>
    </person>
    <person id="ped96" depart="20.47" type="ped_pedestrian">
        <walk from="-201494611#0" to="-402016774"/>
    </person>
    <person id="ped97" depart="20.68" type="ped_pedestrian">
        <walk from="436096922#0" to="305823737#0"/>
    </person>
    <person id="ped98" depart="20.90" type="ped_pedestrian">
        <walk from="254235307#5" to="967938217"/>
    </person>
    <person id="ped99" depart="21.11" type="ped_pedestrian">
        <walk from="27245696" to="749486251#1"/>
    </person>
    <person id="ped100" depart="21.32" type="ped_pedestrian">
        <walk from="-267265184#0" to="-245939113#2"/>
    </person>
    <person id="ped101" depart="21.54" type="ped_pedestrian">
        <walk from="-240348395#4" to="23148902#0"/>
    </person>
    <person id="ped102" depart="21.75" type="ped_pedestrian">
        <walk from="-80599432#0" to="253488943"/>
    </person>
    <person id="ped103" depart="21.96" type="ped_pedestrian">
        <walk from="320190186#1" to="-37811442#0"/>
    </person>
    <person id="ped104" depart="22.17" type="ped_pedestrian">
        <walk from="266236584" to="-69727049#0"/>
    </person>
    <person id="ped105" depart="22.39" type="ped_pedestrian">
        <walk from="191128494" to="60169838"/>
    </person>
    <person id="ped106" depart="22.60" type="ped_pedestrian">
        <walk from="165823633#0" to="-85287421#1"/>
    </person>
    <person id="ped107" depart="22.81" type="ped_pedestrian">
        <walk from="-103170336" to="366073484#1"/>
    </person>
    <person id="ped108" depart="23.03" type="ped_pedestrian">
        <walk from="268877829" to="-659292414"/>
    </person>
    <person id="ped109" depart="23.24" type="ped_pedestrian">
        <walk from="351143414#1" to="231285503#3"/>
    </person>
    <person id="ped110" depart="23.45" type="ped_pedestrian">
        <walk from="169684595#2" to="-107085662#2"/>
    </person>
    <person id="ped111" depart="23.67" type="ped_pedestrian">
        <walk from="-205880172" to="520824524#3"/>
    </person>
    <person id="ped112" depart="23.88" type="ped_pedestrian">
        <walk from="600447897" to="229239400"/>
    </person>
    <person id="ped113" depart="24.09" type="ped_pedestrian">
        <walk from="43702375#3" to="24490894"/>
    </person>
    <person id="ped114" depart="24.31" type="ped_pedestrian">
        <walk from="-27245133#1" to="-254957236#0"/>
    </person>
    <person id="ped115" depart="24.52" type="ped_pedestrian">
        <walk from="103864417#0" to="57016160#0"/>
    </person>
    <person id="ped116" depart="24.73" type="ped_pedestrian">
        <walk from="395673319" to="461153870"/>
    </person>
    <person id="ped117" depart="24.95" type="ped_pedestrian">
        <walk from="-524765355" to="-235391527#2"/>
    </person>
    <person id="ped118" depart="25.16" type="ped_pedestrian">
        <walk from="377709918" to="53016881#1"/>
    </person>
    <person id="ped119" depart="25.37" type="ped_pedestrian">
        <walk from="163235126#0" to="254952129#1"/>
    </person>
    <person id="ped120" depart="25.59" type="ped_pedestrian">
        <walk from="-27610890" to="72594728#1"/>
    </person>
    <person id="ped121" depart="25.80" type="ped_pedestrian">
        <walk from="464136952#0" to="92156243#0"/>
    </person>
    <person id="ped122" depart="26.01" type="ped_pedestrian">
        <walk from="-139692115#3" to="349836789"/>
    </person>
    <person id="ped123" depart="26.23" type="ped_pedestrian">
        <walk from="110394238" to="729913426"/>
    </person>
    <person id="ped124" depart="26.44" type="ped_pedestrian">
        <walk from="39649664#1" to="464136947"/>
    </person>
    <person id="ped125" depart="26.65" type="ped_pedestrian">
        <walk from="402016813#1" to="-739924927#0"/>
    </person>
    <person id="ped126" depart="26.87" type="ped_pedestrian">
        <walk from="387015281" to="-240679912"/>
    </person>
    <person id="ped127" depart="27.08" type="ped_pedestrian">
        <walk from="-429104325#0" to="409050024"/>
    </person>
    <person id="ped128" depart="27.29" type="ped_pedestrian">
        <walk from="184478074#0" to="1034115245#1"/>
    </person>
    <person id="ped129" depart="27.51" type="ped_pedestrian">
        <walk from="-134424675#0" to="-366073455#0"/>
    </person>
    <person id="ped130" depart="27.72" type="ped_pedestrian">
        <walk from="1098919001#29" to="464136950"/>
    </person>
    <person id="ped131" depart="27.93" type="ped_pedestrian">
        <walk from="894189050" to="-87712914#1"/>
    </person>
    <person id="ped132" depart="28.15" type="ped_pedestrian">
        <walk from="269001617" to="162513809"/>
    </person>
    <person id="ped133" depart="28.36" type="ped_pedestrian">
        <walk from="749504931#3" to="-245939113#1"/>
    </person>
    <person id="ped134" depart="28.57" type="ped_pedestrian">
        <walk from="900651684" to="-35014373#3"/>
    </person>
    <person id="ped135" depart="28.78" type="ped_pedestrian">
        <walk from="-240679928#0" to="172808747"/>
    </person>
    <person id="ped136" depart="29.00" type="ped_pedestrian">
        <walk from="253488996" to="214788224#0"/>
    </person>
    <person id="ped137" depart="29.21" type="ped_pedestrian">
        <walk from="150837582#3" to="240679876"/>
    </person>
    <person id="ped138" depart="29.42" type="ped_pedestrian">
        <walk from="-572455968#2" to="308378841"/>
    </person>
    <person id="ped139" depart="29.64" type="ped_pedestrian">
        <walk from="-102152771#0" to="69731561"/>
    </person>
    <person id="ped140" depart="29.85" type="ped_pedestrian">
        <walk from="227228184" to="320630988#2"/>
    </person>
    <person id="ped141" depart="30.06" type="ped_pedestrian">
        <walk from="27246000#0" to="1101640525#0"/>
    </person>
    <person id="ped142" depart="30.28" type="ped_pedestrian">
        <walk from="1063016035" to="44828412#6"/>
    </person>
    <person id="ped143" depart="30.49" type="ped_pedestrian">
        <walk from="322861802" to="102345553"/>
    </person>
    <person id="ped144" depart="30.70" type="ped_pedestrian">
        <walk from="162515569#2" to="-En7"/>
    </person>
    <person id="ped145" depart="30.92" type="ped_pedestrian">
        <walk from="762831988" to="28143928#2"/>
    </person>
    <person id="ped146" depart="31.13" type="ped_pedestrian">
        <walk from="597172848" to="254496220#0"/>
    </person>
    <person id="ped147" depart="31.34" type="ped_pedestrian">
        <walk from="102345556#0" to="230152981"/>
    </person>
    <person id="ped148" depart="31.56" type="ped_pedestrian">
        <walk from="27244261#2" to="185578024"/>
    </person>
    <person id="ped149" depart="31.77" type="ped_pedestrian">
        <walk from="187628760#1" to="57846937"/>
    </person>
    <person id="ped150" depart="31.98" type="ped_pedestrian">
        <walk from="395670533" to="-317890187"/>
    </person>
    <person id="ped151" depart="32.20" type="ped_pedestrian">
        <walk from="-215955746#1" to="215925961#1"/>
    </person>
    <person id="ped152" depart="32.41" type="ped_pedestrian">
        <walk from="263990616" to="114460702"/>
    </person>
    <person id="ped153" depart="32.62" type="ped_pedestrian">
        <walk from="412718187" to="358953075#0"/>
    </person>
    <person id="ped154" depart="32.84" type="ped_pedestrian">
        <walk from="27418198#2" to="-43702375#0"/>
    </person>
    <person id="ped155" depart="33.05" type="ped_pedestrian">
        <walk from="-374616071#1" to="-134424676#3"/>
    </person>
    <person id="ped156" depart="33.26" type="ped_pedestrian">
        <walk from="-494440497#1" to="188286749#1"/>
    </person>
    <person id="ped157" depart="33.48" type="ped_pedestrian">
        <walk from="-366073469#0" to="300040782"/>
    </person>
    <person id="ped158" depart="33.69" type="ped_pedestrian">
        <walk from="358953074#7" to="366073472#1"/>
    </person>
    <person id="ped159" depart="33.90" type="ped_pedestrian">
        <walk from="-240348395#0" to="165825876"/>
    </person>
    <person id="ped160" depart="34.12" type="ped_pedestrian">
        <walk from="-33178511#4" to="85619563#12"/>
    </person>
    <person id="ped161" depart="34.33" type="ped_pedestrian">
        <walk from="-520824524#2" to="44828412#9"/>
    </person>
    <person id="ped162" depart="34.54" type="ped_pedestrian">
        <walk from="27302691#0" to="972789502#1"/>
    </person>
    <person id="ped163" depart="34.75" type="ped_pedestrian">
        <walk from="25099320#7" to="821851854"/>
    </person>
    <person id="ped164" depart="34.97" type="ped_pedestrian">
        <walk from="53175069#1" to="254362648#2"/>
    </person>
    <person id="ped165" depart="35.18" type="ped_pedestrian">
        <walk from="320630988#0" to="208424711#0"/>
    </person>
    <person id="ped166" depart="35.39" type="ped_pedestrian">
        <walk from="429065350#1" to="230152981"/>
    </person>
    <person id="ped167" depart="35.61" type="ped_pedestrian">
        <walk from="-500582851#1" to="268877837#2"/>
    </person>
    <person id="ped168" depart="35.82" type="ped_pedestrian">
        <walk from="364071765#1" to="217387497"/>
    </person>
    <person id="ped169" depart="36.03" type="ped_pedestrian">
        <walk from="-79721497#1" to="1080597759"/>
    </person>
    <person id="ped170" depart="36.25" type="ped_pedestrian">
        <walk from="227441549" to="-270905183#0"/>
    </person>
    <person id="ped171" depart="36.46" type="ped_pedestrian">
        <walk from="306029065#4" to="-187628743#0"/>
    </person>
    <person id="ped172" depart="36.67" type="ped_pedestrian">
        <walk from="163235137" to="227991190#2"/>
    </person>
    <person id="ped173" depart="36.89" type="ped_pedestrian">
        <walk from="164092973#1" to="60169830#0"/>
    </person>
    <person id="ped174" depart="37.10" type="ped_pedestrian">
        <walk from="24534083#0" to="299661658#0"/>
    </person>
    <person id="ped175" depart="37.31" type="ped_pedestrian">
        <walk from="457856894" to="364071765#0"/>
    </person>
    <person id="ped176" depart="37.53" type="ped_pedestrian">
        <walk from="150694614#1" to="-1055823708#3"/>
    </person>
    <person id="ped177" depart="37.74" type="ped_pedestrian">
        <walk from="454541478" to="843681073#1"/>
    </person>
    <person id="ped178" depart="37.95" type="ped_pedestrian">
        <walk from="229239405" to="252477790#0"/>
    </person>
    <person id="ped179" depart="38.17" type="ped_pedestrian">
        <walk from="-420551650" to="-420551633#6"/>
    </person>
    <person id="ped180" depart="38.38" type="ped_pedestrian">
        <walk from="185579781#4" to="-254957236#2"/>
    </person>
    <person id="ped181" depart="38.59" type="ped_pedestrian">
        <walk from="151785775" to="235391751"/>
    </person>
    <person id="ped182" depart="38.81" type="ped_pedestrian">
        <walk from="-269124388" to="185325721"/>
    </person>
    <person id="ped183" depart="39.02" type="ped_pedestrian">
        <walk from="-165825311#2" to="150694611#3"/>
    </person>
    <person id="ped184" depart="39.23" type="ped_pedestrian">
        <walk from="-398942398" to="1098919001#17"/>
    </person>
    <person id="ped185" depart="39.45" type="ped_pedestrian">
        <walk from="360248197#1" to="150694611#4"/>
    </person>
    <person id="ped186" depart="39.66" type="ped_pedestrian">
        <walk from="358953077" to="431889852"/>
    </person>
    <person id="ped187" depart="39.87" type="ped_pedestrian">
        <walk from="-128783418#0" to="227441541"/>
    </person>
    <person id="ped188" depart="40.09" type="ped_pedestrian">
        <walk from="En9" to="130116103"/>
    </person>
    <person id="ped189" depart="40.30" type="ped_pedestrian">
        <walk from="27244035" to="377714518"/>
    </person>
    <person id="ped190" depart="40.51" type="ped_pedestrian">
        <walk from="817581028#0" to="-376840832"/>
    </person>
    <person id="ped191" depart="40.73" type="ped_pedestrian">
        <walk from="-129556180" to="-27261757#3"/>
    </person>
    <person id="ped192" depart="40.94" type="ped_pedestrian">
        <walk from="-254952129#3" to="27391708#0"/>
    </person>
    <person id="ped193" depart="41.15" type="ped_pedestrian">
        <walk from="300068767#4" to="364288595#3"/>
    </person>
    <person id="ped194" depart="41.36" type="ped_pedestrian">
        <walk from="104363154" to="28143931#0"/>
    </person>
    <person id="ped195" depart="41.58" type="ped_pedestrian">
        <walk from="319037854#0" to="-206583401#1"/>
    </person>
    <person id="ped196" depart="41.79" type="ped_pedestrian">
        <walk from="295252098#2" to="257060264#0"/>
    </person>
    <person id="ped197" depart="42.00" type="ped_pedestrian">
        <walk from="-235389175#0" to="369239271#1"/>
    </person>
    <person id="ped198" depart="42.22" type="ped_pedestrian">
        <walk from="44828708" to="251816549"/>
    </person>
    <person id="ped199" depart="42.43" type="ped_pedestrian">
        <walk from="-251987384#2" to="95170291#1"/>
    </person>
    <person id="ped200" depart="42.64" type="ped_pedestrian">
        <walk from="44828621#1" to="420551624#1"/>
    </person>
    <person id="ped201" depart="42.86" type="ped_pedestrian">
        <walk from="267411754#3" to="4220905"/>
    </person>
    <person id="ped202" depart="43.07" type="ped_pedestrian">
        <walk from="339381133" to="894140688"/>
    </person>
    <person id="ped203" depart="43.28" type="ped_pedestrian">
        <walk from="-778982229#0" to="40104609#4"/>
    </person>
    <person id="ped204" depart="43.50" type="ped_pedestrian">
        <walk from="227227845" to="190438083#1"/>
    </person>
    <person id="ped205" depart="43.71" type="ped_pedestrian">
        <walk from="172808755#2" to="336940778#1"/>
    </person>
    <person id="ped206" depart="43.92" type="ped_pedestrian">
        <walk from="-744289344" to="44828761#2"/>
    </person>
    <person id="ped207" depart="44.14" type="ped_pedestrian">
        <walk from="429104325#1" to="-216146981#0"/>
    </person>
    <person id="ped208" depart="44.35" type="ped_pedestrian">
        <walk from="5073616#3" to="-48244127#0"/>
    </person>
    <person id="ped209" depart="44.56" type="ped_pedestrian">
        <walk from="150694611#2" to="-150547351#2"/>
    </person>
    <person id="ped210" depart="44.78" type="ped_pedestrian">
        <walk from="122000766#1" to="5073607#1"/>
    </person>
    <person id="ped211" depart="44.99" type="ped_pedestrian">
        <walk from="30057718#2" to="-851760422"/>
    </person>
    <person id="ped212" depart="45.20" type="ped_pedestrian">
        <walk from="191128496" to="359726683#0"/>
    </person>
    <person id="ped213" depart="45.42" type="ped_pedestrian">
        <walk from="192416820" to="39316799"/>
    </person>
    <person id="ped214" depart="45.63" type="ped_pedestrian">
        <walk from="24490813#1" to="187628760#2"/>
    </person>
    <person id="ped215" depart="45.84" type="ped_pedestrian">
        <walk from="224885819#0" to="165825877#3"/>
    </person>
    <person id="ped216" depart="46.06" type="ped_pedestrian">
        <walk from="-53215420#0" to="-251156174#0"/>
    </person>
    <person id="ped217" depart="46.27" type="ped_pedestrian">
        <walk from="-366073448" to="-24916962#0"/>
    </person>
    <person id="ped218" depart="46.48" type="ped_pedestrian">
        <walk from="227062814" to="360248211#3"/>
    </person>
    <person id="ped219" depart="46.70" type="ped_pedestrian">
        <walk from="190444634#0" to="33177580"/>
    </person>
    <person id="ped220" depart="46.91" type="ped_pedestrian">
        <walk from="-901506729" to="-232947459"/>
    </person>
    <person id="ped221" depart="47.12" type="ped_pedestrian">
        <walk from="-366073467#0" to="-4404114#0"/>
    </person>
    <person id="ped222" depart="47.33" type="ped_pedestrian">
        <walk from="915684659#0" to="232233481"/>
    </person>
    <person id="ped223" depart="47.55" type="ped_pedestrian">
        <walk from="300044362#1" to="-254952129#3"/>
    </person>
    <person id="ped224" depart="47.76" type="ped_pedestrian">
        <walk from="-358953110#3" to="-165849627#2"/>
    </person>
    <person id="ped225" depart="47.97" type="ped_pedestrian">
        <walk from="768475541" to="188466506"/>
    </person>
    <person id="ped226" depart="48.19" type="ped_pedestrian">
        <walk from="-171452781" to="-27245680#1"/>
    </person>