<?xml version="1.0" encoding="UTF-8"?>

<!-- generated on 2023-04-24 14:24:48.723455 by randomTrips.py v1_16_0+0000-94ec4c6cd72
<configuration>
    <allow-fringe.min-length value="1000.0"/>
    <end value="3600"/>
    <fringe-factor value="5"/>
    <fringe-start-attributes value="departSpeed=&quot;max&quot;"/>
    <lanes value="True"/>
    <min-distance value="300.0"/>
    <net-file value="osm.net.xml"/>
    <period value="0.295335"/>
    <route-file value="osm.passenger.rou.xml"/>
    <trip-attributes value="departLane=&quot;best&quot;"/>
    <output-trip-file value="osm.passenger.trips.xml"/>
    <prefix value="veh"/>
    <validate value="True"/>
    <vehicle-class value="passenger"/>
</configuration>
-->

<!-- generated on 2023-04-24 14:24:46 by Eclipse SUMO duarouter Version 1.16.0
<configuration xmlns:xsi="http://www.w3.org/2001/XMLSchema-instance" xsi:noNamespaceSchemaLocation="http://sumo.dlr.de/xsd/duarouterConfiguration.xsd">

    <input>
        <net-file value="osm.net.xml"/>
        <route-files value="osm.passenger.trips.xml"/>
    </input>

    <output>
        <output-file value="osm.passenger.trips.xml.tmp"/>
        <alternatives-output value="NUL"/>
        <write-trips value="true"/>
    </output>

    <time>
        <begin value="0"/>
        <end value="3600"/>
    </time>

    <report>
        <no-warnings value="true"/>
        <ignore-errors value="true"/>
        <no-step-log value="true"/>
    </report>

</configuration>
-->

<routes xmlns:xsi="http://www.w3.org/2001/XMLSchema-instance" xsi:noNamespaceSchemaLocation="http://sumo.dlr.de/xsd/routes_file.xsd">
    <vType id="veh_passenger" vClass="passenger"/>
    <trip id="veh0" type="veh_passenger" depart="0.00" departLane="best" from="269001615#1" to="-150554195#2"/>
    <trip id="veh1" type="veh_passenger" depart="0.30" departLane="best" from="150393270#0" to="107085655"/>
    <trip id="veh2" type="veh_passenger" depart="0.59" departLane="best" from="35834159" to="28143931#1"/>
    <trip id="veh3" type="veh_passenger" depart="0.89" departLane="best" from="531113643" to="-226872065#8"/>
    <trip id="veh4" type="veh_passenger" depart="1.18" departLane="best" from="105611252" to="229917857#1"/>
    <trip id="veh5" type="veh_passenger" depart="1.48" departLane="best" from="-150556231#2" to="-638123367#0"/>
    <trip id="veh6" type="veh_passenger" depart="1.77" departLane="best" from="269040901#1" to="24534195#0"/>
    <trip id="veh7" type="veh_passenger" depart="2.07" departLane="best" from="107085646#0" to="251987384#3"/>
    <trip id="veh8" type="veh_passenger" depart="2.36" departLane="best" from="40104609#2" to="-112796201#2"/>
    <trip id="veh9" type="veh_passenger" depart="2.66" departLane="best" from="39816394" to="306029065#3"/>
    <trip id="veh10" type="veh_passenger" depart="2.95" departLane="best" from="165823635" to="-35899348#1"/>
    <trip id="veh11" type="veh_passenger" depart="3.25" departLane="best" from="-240321453#1" to="-24532297#1"/>
    <trip id="veh12" type="veh_passenger" depart="3.54" departLane="best" from="4404113#0" to="253489007#0"/>
    <trip id="veh13" type="veh_passenger" depart="3.84" departLane="best" from="40103022" to="334457598#0"/>
    <trip id="veh14" type="veh_passenger" depart="4.13" departLane="best" from="24439729#0" to="97301282#1"/>
    <trip id="veh15" type="veh_passenger" depart="4.43" departLane="best" from="184227241#2" to="245941530#2"/>
    <trip id="veh16" type="veh_passenger" depart="4.73" departLane="best" from="415123460#0" to="257676226#1"/>
    <trip id="veh17" type="veh_passenger" depart="5.02" departLane="best" from="4432610#4" to="251816543"/>
    <trip id="veh18" type="veh_passenger" depart="5.32" departLane="best" from="31648189" to="-175558914#4"/>
    <trip id="veh19" type="veh_passenger" depart="5.61" departLane="best" from="107085664#0" to="150554195#2"/>
    <trip id="veh20" type="veh_passenger" depart="5.91" departLane="best" from="-218271804" to="1085759979#0"/>
    <trip id="veh21" type="veh_passenger" depart="6.20" departLane="best" from="-24534243#0" to="150540315"/>
    <trip id="veh22" type="veh_passenger" depart="6.50" departLane="best" from="268931683#1.46" to="17977155#1"/>
    <trip id="veh23" type="veh_passenger" depart="6.79" departLane="best" from="182826552" to="-E8_vu3"/>
    <trip id="veh24" type="veh_passenger" depart="7.09" departLane="best" from="149951200#2" to="79683431#1"/>
    <trip id="veh25" type="veh_passenger" depart="7.38" departLane="best" from="269017614" to="255389621#1"/>
    <trip id="veh26" type="veh_passenger" depart="7.68" departLane="best" from="-38152916#2" to="334457597#0"/>
    <trip id="veh27" type="veh_passenger" depart="7.97" departLane="best" from="-366073449" to="185573957#0"/>
    <trip id="veh28" type="veh_passenger" depart="8.27" departLane="best" from="E21_y8" to="269001612#4"/>
    <trip id="veh29" type="veh_passenger" depart="8.56" departLane="best" from="246584302#0" to="29020152"/>
    <trip id="veh30" type="veh_passenger" depart="8.86" departLane="best" from="43578399#1" to="371300204#0"/>
    <trip id="veh31" type="veh_passenger" depart="9.16" departLane="best" from="1081335276" to="-150851814#1"/>
    <trip id="veh32" type="veh_passenger" depart="9.45" departLane="best" from="150896688#0" to="149951202#6"/>
    <trip id="veh33" type="veh_passenger" depart="9.75" departLane="best" from="-E3_y" to="85287421#1"/>
    <trip id="veh34" type="veh_passenger" depart="10.04" departLane="best" from="475679571#3" to="150896688#3"/>
    <trip id="veh35" type="veh_passenger" depart="10.34" departLane="best" from="270655638" to="189764669#0"/>
    <trip id="veh36" type="veh_passenger" depart="10.63" departLane="best" from="57846800#1" to="215925850#1"/>
    <trip id="veh37" type="veh_passenger" depart="10.93" departLane="best" from="149898017#0" to="127607180#0"/>
    <trip id="veh38" type="veh_passenger" depart="11.22" departLane="best" from="24916962#0" to="149352823#1"/>
    <trip id="veh39" type="veh_passenger" depart="11.52" departLane="best" from="251816590" to="53175067#1"/>
    <trip id="veh40" type="veh_passenger" depart="11.81" departLane="best" from="189765125#0" to="107085647#1"/>
    <trip id="veh41" type="veh_passenger" depart="12.11" departLane="best" from="-240321445#1" to="-178935171#0"/>
    <trip id="veh42" type="veh_passenger" depart="12.40" departLane="best" from="-24909020#2" to="266188220#1"/>
    <trip id="veh43" type="veh_passenger" depart="12.70" departLane="best" from="385970247#2" to="190458063"/>
    <trip id="veh44" type="veh_passenger" depart="12.99" departLane="best" from="-210362483#1" to="185579896#1"/>
    <trip id="veh45" type="veh_passenger" depart="13.29" departLane="best" from="E7_vu3" to="240321445#8"/>
    <trip id="veh46" type="veh_passenger" depart="13.59" departLane="best" from="95170298.51" to="4432606#4"/>
    <trip id="veh47" type="veh_passenger" depart="13.88" departLane="best" from="-134396877" to="320630988#2"/>
    <trip id="veh48" type="veh_passenger" depart="14.18" departLane="best" from="28874733#0" to="24470190#0"/>
    <trip id="veh49" type="veh_passenger" depart="14.47" departLane="best" from="149951200#1" to="269001613#0"/>
    <trip id="veh50" type="veh_passenger" depart="14.77" departLane="best" from="-253488999#3" to="199831388.17"/>
    <trip id="veh51" type="veh_passenger" depart="15.06" departLane="best" from="209308037#1" to="898486014#0"/>
    <trip id="veh52" type="veh_passenger" depart="15.36" departLane="best" from="475657675" to="149899941"/>
    <trip id="veh53" type="veh_passenger" depart="15.65" departLane="best" from="229619678#0" to="-415123460#3"/>
    <trip id="veh54" type="veh_passenger" depart="15.95" departLane="best" from="56186954" to="466077685"/>
    <trip id="veh56" type="veh_passenger" depart="16.54" departLane="best" from="255389622#6" to="-35014374#2"/>
    <trip id="veh57" type="veh_passenger" depart="16.83" departLane="best" from="364080662#0" to="24532297#1"/>
    <trip id="veh58" type="veh_passenger" depart="17.13" departLane="best" from="376849860#1" to="240321453#0"/>
    <trip id="veh59" type="veh_passenger" depart="17.42" departLane="best" from="-102486913#0" to="155860733#5"/>
    <trip id="veh60" type="veh_passenger" depart="17.72" departLane="best" from="-150393268#2" to="71256192"/>
    <trip id="veh62" type="veh_passenger" depart="18.31" departLane="best" from="150851811#2" to="-207220343"/>
    <trip id="veh63" type="veh_passenger" depart="18.61" departLane="best" from="500261498" to="880134845"/>
    <trip id="veh64" type="veh_passenger" depart="18.90" departLane="best" from="-226872065#10" to="227062813#1"/>
    <trip id="veh65" type="veh_passenger" depart="19.20" departLane="best" from="-215925852#1" to="364071761#0"/>
    <trip id="veh66" type="veh_passenger" depart="19.49" departLane="best" from="366073458#1" to="-28745180#0"/>
    <trip id="veh68" type="veh_passenger" depart="20.08" departLane="best" from="149899941" to="466081173#1"/>
    <trip id="veh69" type="veh_passenger" depart="20.38" departLane="best" from="190458064#2" to="102774826"/>
    <trip id="veh70" type="veh_passenger" depart="20.67" departLane="best" from="24532297#1" to="334457598#3"/>
    <trip id="veh71" type="veh_passenger" depart="20.97" departLane="best" from="-597172848" to="150857994#2"/>
    <trip id="veh72" type="veh_passenger" depart="21.26" departLane="best" from="E4_vu3" to="269017600#1"/>
    <trip id="veh73" type="veh_passenger" depart="21.56" departLane="best" from="204976967" to="235389906"/>
    <trip id="veh74" type="veh_passenger" depart="21.85" departLane="best" from="-27245673#3" to="107085662#0"/>
    <trip id="veh75" type="veh_passenger" depart="22.15" departLane="best" from="165720108#2.22" to="251987384#1"/>
    <trip id="veh76" type="veh_passenger" depart="22.45" departLane="best" departSpeed="max" from="1081335277" to="107085648#0"/>
    <trip id="veh77" type="veh_passenger" depart="22.74" departLane="best" from="-215971172#0" to="268931658"/>
    <trip id="veh78" type="veh_passenger" depart="23.04" departLane="best" from="1081335276" to="532149775#2"/>
    <trip id="veh79" type="veh_passenger" depart="23.33" departLane="best" from="4432606#5" to="-215971173#0"/>
    <trip id="veh80" type="veh_passenger" depart="23.63" departLane="best" from="1085759981#1" to="27245998"/>
    <trip id="veh81" type="veh_passenger" depart="23.92" departLane="best" from="1038224266#0" to="-30158429#1"/>
    <trip id="veh82" type="veh_passenger" depart="24.22" departLane="best" from="7972298" to="251109201"/>
    <trip id="veh83" type="veh_passenger" depart="24.51" departLane="best" from="218061156#1" to="377905808#0"/>
    <trip id="veh84" type="veh_passenger" depart="24.81" departLane="best" from="40103023#1" to="-531113646"/>
    <trip id="veh85" type="veh_passenger" depart="25.10" departLane="best" from="-24532297#0" to="19354458#1"/>
    <trip id="veh86" type="veh_passenger" depart="25.40" departLane="best" from="190458064#4" to="216879574#3"/>
    <trip id="veh87" type="veh_passenger" depart="25.69" departLane="best" from="343029968#1" to="276412658"/>
    <trip id="veh88" type="veh_passenger" depart="25.99" departLane="best" departSpeed="max" from="E11_P7" to="-24534083#0"/>
    <trip id="veh89" type="veh_passenger" depart="26.28" departLane="best" from="189765373" to="165823634#1.7"/>
    <trip id="veh90" type="veh_passenger" depart="26.58" departLane="best" from="4432610#4" to="127608718#0"/>
    <trip id="veh91" type="veh_passenger" depart="26.88" departLane="best" departSpeed="max" from="-46963653#2" to="207636690#1"/>
    <trip id="veh92" type="veh_passenger" depart="27.17" departLane="best" from="190451914#1" to="150546872"/>
    <trip id="veh93" type="veh_passenger" depart="27.47" departLane="best" from="127607180#0" to="638123367#0"/>
    <trip id="veh94" type="veh_passenger" depart="27.76" departLane="best" from="205880175#1" to="4432606#6"/>
    <trip id="veh95" type="veh_passenger" depart="28.06" departLane="best" from="24573650#3" to="-190443683#0"/>
    <trip id="veh96" type="veh_passenger" depart="28.35" departLane="best" from="EMk3" to="424501493#0"/>
    <trip id="veh97" type="veh_passenger" depart="28.65" departLane="best" from="95170291#4" to="692648168#4"/>
    <trip id="veh98" type="veh_passenger" depart="28.94" departLane="best" from="4404113#2" to="-371573876#4"/>
    <trip id="veh99" type="veh_passenger" depart="29.24" departLane="best" from="227062813#0" to="1055823708#2"/>
    <trip id="veh100" type="veh_passenger" depart="29.53" departLane="best" from="189765125#2" to="-207636690#0"/>
    <trip id="veh101" type="veh_passenger" depart="29.83" departLane="best" from="184227241#4" to="E18_y"/>
    <trip id="veh102" type="veh_passenger" depart="30.12" departLane="best" from="149899941" to="377853509#0"/>
    <trip id="veh103" type="veh_passenger" depart="30.42" departLane="best" from="210082253" to="190458064#3"/>
    <trip id="veh104" type="veh_passenger" depart="30.71" departLane="best" from="93785423" to="E4_y"/>
    <trip id="veh105" type="veh_passenger" depart="31.01" departLane="best" from="24608228" to="320252634#3"/>
    <trip id="veh106" type="veh_passenger" depart="31.31" departLane="best" from="-35834153#0" to="150694616#2"/>
    <trip id="veh107" type="veh_passenger" depart="31.60" departLane="best" from="95170291#4" to="251816552"/>
    <trip id="veh108" type="veh_passenger" depart="31.90" departLane="best" from="24533443#1" to="359726683#2"/>
    <trip id="veh109" type="veh_passenger" depart="32.19" departLane="best" from="-205880175#2" to="251816579"/>
    <trip id="veh110" type="veh_passenger" depart="32.49" departLane="best" from="229619682#1" to="4404115#0"/>
    <trip id="veh111" type="veh_passenger" depart="32.78" departLane="best" from="-360787852#0" to="93785463#0.22"/>
    <trip id="veh112" type="veh_passenger" depart="33.08" departLane="best" from="-218271806#0" to="-4492379#1"/>
    <trip id="veh113" type="veh_passenger" depart="33.37" departLane="best" from="253488980" to="280873251#0"/>
    <trip id="veh114" type="veh_passenger" depart="33.67" departLane="best" from="108404033#0" to="-270684576#0"/>
    <trip id="veh115" type="veh_passenger" depart="33.96" departLane="best" from="53040718#2" to="127607180#0"/>
    <trip id="veh117" type="veh_passenger" depart="34.55" departLane="best" from="190443688#0" to="251816568"/>
    <trip id="veh118" type="veh_passenger" depart="34.85" departLane="best" from="236994808" to="779043553#2"/>
    <trip id="veh119" type="veh_passenger" depart="35.14" departLane="best" from="1101405928#0" to="189764669#0"/>
    <trip id="veh120" type="veh_passenger" depart="35.44" departLane="best" from="27870084#0" to="150741844"/>
    <trip id="veh121" type="veh_passenger" depart="35.74" departLane="best" from="150896688#2" to="360248187#0"/>
    <trip id="veh122" type="veh_passenger" depart="36.03" departLane="best" from="-215971175#2" to="214251574"/>
    <trip id="veh123" type="veh_passenger" depart="36.33" departLane="best" from="EMk2" to="E7_vu3"/>
    <trip id="veh124" type="veh_passenger" depart="36.62" departLane="best" from="-216128744#0" to="1055823708#0"/>
    <trip id="veh126" type="veh_passenger" depart="37.21" departLane="best" from="502060953#0" to="489072363"/>
    <trip id="veh127" type="veh_passenger" depart="37.51" departLane="best" from="182489958" to="-360787852#0"/>
    <trip id="veh128" type="veh_passenger" depart="37.80" departLane="best" departSpeed="max" from="42465494" to="309717596#2"/>
    <trip id="veh129" type="veh_passenger" depart="38.10" departLane="best" departSpeed="max" from="255823912.246" to="E21_y8"/>
    <trip id="veh130" type="veh_passenger" depart="38.39" departLane="best" from="404599853" to="150697173#2"/>
    <trip id="veh132" type="veh_passenger" depart="38.98" departLane="best" from="-306029065#0" to="-268931675#1"/>
    <trip id="veh133" type="veh_passenger" depart="39.28" departLane="best" from="-24608228" to="24608195#0"/>
    <trip id="veh135" type="veh_passenger" depart="39.87" departLane="best" from="320630989#0" to="-85287421#1"/>
    <trip id="veh136" type="veh_passenger" depart="40.17" departLane="best" from="268931678" to="149904354"/>
    <trip id="veh138" type="veh_passenger" depart="40.76" departLane="best" from="4403852#0" to="-240321453#1"/>
    <trip id="veh140" type="veh_passenger" depart="41.35" departLane="best" from="-1101405928#0" to="366073475#1"/>
    <trip id="veh141" type="veh_passenger" depart="41.64" departLane="best" from="269001612#4" to="148359950#3"/>
    <trip id="veh143" type="veh_passenger" depart="42.23" departLane="best" from="191128494" to="-130540643"/>
    <trip id="veh144" type="veh_passenger" depart="42.53" departLane="best" from="-216879574#4" to="502060953#0"/>
    <trip id="veh145" type="veh_passenger" depart="42.82" departLane="best" from="53175165" to="24534243#0"/>
    <trip id="veh146" type="veh_passenger" depart="43.12" departLane="best" departSpeed="max" from="42465494" to="251816566#2"/>
    <trip id="veh147" type="veh_passenger" depart="43.41" departLane="best" from="-33083988#1" to="-28646387#1"/>
    <trip id="veh148" type="veh_passenger" depart="43.71" departLane="best" from="150851814#1" to="53175067#4"/>
    <trip id="veh149" type="veh_passenger" depart="44.00" departLane="best" from="388155249#1" to="4432606#4"/>
    <trip id="veh150" type="veh_passenger" depart="44.30" departLane="best" from="53175069#3" to="102486913#0"/>
    <trip id="veh151" type="veh_passenger" depart="44.60" departLane="best" from="127606907#3" to="-245941530#2"/>
    <trip id="veh153" type="veh_passenger" depart="45.19" departLane="best" from="189769943#0" to="25876774"/>
    <trip id="veh154" type="veh_passenger" depart="45.48" departLane="best" from="-356183313" to="724854350#0"/>
    <trip id="veh155" type="veh_passenger" depart="45.78" departLane="best" from="4492379#1" to="999859779#1"/>
    <trip id="veh156" type="veh_passenger" depart="46.07" departLane="best" from="40104609#7" to="500582850"/>
    <trip id="veh157" type="veh_passenger" depart="46.37" departLane="best" from="-150554195#2" to="35134167#2"/>
    <trip id="veh158" type="veh_passenger" depart="46.66" departLane="best" from="164092564" to="739653275"/>
    <trip id="veh159" type="veh_passenger" depart="46.96" departLane="best" from="39649662#2" to="4432614#0"/>
    <trip id="veh160" type="veh_passenger" depart="47.25" departLane="best" from="40104609#7" to="149951202#3"/>
    <trip id="veh162" type="veh_passenger" depart="47.84" departLane="best" from="46963142#1" to="4432606#10"/>
    <trip id="veh163" type="veh_passenger" depart="48.14" departLane="best" from="107085648#1" to="402016784"/>
    <trip id="veh164" type="veh_passenger" depart="48.43" departLane="best" from="215925857#1" to="150837585#3"/>
    <trip id="veh165" type="veh_passenger" depart="48.73" departLane="best" from="387015293#3" to="108404025#0"/>
    <trip id="veh166" type="veh_passenger" depart="49.03" departLane="best" from="-150549242#1" to="-53175159#0"/>
    <trip id="veh167" type="veh_passenger" depart="49.32" departLane="best" from="163419466#1" to="4432614#2"/>
    <trip id="veh168" type="veh_passenger" depart="49.62" departLane="best" from="95170275" to="150546874#1"/>
    <trip id="veh169" type="veh_passenger" depart="49.91" departLane="best" from="269001621#3" to="189765125#1"/>
    <trip id="veh170" type="veh_passenger" depart="50.21" departLane="best" from="E10_y" to="24439729#0"/>
    <trip id="veh171" type="veh_passenger" depart="50.50" departLane="best" from="8067185#1" to="-268931675#1"/>
    <trip id="veh172" type="veh_passenger" depart="50.80" departLane="best" from="95170298" to="-415123460#3"/>
    <trip id="veh173" type="veh_passenger" depart="51.09" departLane="best" from="93785463#1" to="149951200#3"/>
    <trip id="veh174" type="veh_passenger" depart="51.39" departLane="best" from="-24819999#1" to="199831388.17"/>
    <trip id="veh175" type="veh_passenger" depart="51.68" departLane="best" from="343029968#1" to="150893567"/>
    <trip id="veh176" type="veh_passenger" depart="51.98" departLane="best" from="187057791#2" to="251816541"/>
    <trip id="veh177" type="veh_passenger" depart="52.27" departLane="best" departSpeed="max" from="130540615" to="31648322#1"/>
    <trip id="veh178" type="veh_passenger" depart="52.57" departLane="best" from="-1055826509" to="674280493"/>
    <trip id="veh179" type="veh_passenger" depart="52.86" departLane="best" from="24532277#0" to="320252634#9"/>
    <trip id="veh180" type="veh_passenger" depart="53.16" departLane="best" departSpeed="max" from="35929667.403" to="27261757#1"/>
    <trip id="veh181" type="veh_passenger" depart="53.46" departLane="best" from="179527904#1" to="-215971171#1"/>
    <trip id="veh182" type="veh_passenger" depart="53.75" departLane="best" from="27245673#5" to="164085721#5"/>
    <trip id="veh183" type="veh_passenger" depart="54.05" departLane="best" from="150859889#0" to="4403852#1"/>
    <trip id="veh185" type="veh_passenger" depart="54.64" departLane="best" from="150851814#4" to="189776524"/>
    <trip id="veh186" type="veh_passenger" depart="54.93" departLane="best" from="189765373" to="150661833#1"/>
    <trip id="veh187" type="veh_passenger" depart="55.23" departLane="best" from="-28646387#0" to="190446522"/>
    <trip id="veh188" type="veh_passenger" depart="55.52" departLane="best" from="818899846.17" to="28297618#0"/>
    <trip id="veh189" type="veh_passenger" depart="55.82" departLane="best" from="53175163#1" to="25586776"/>
    <trip id="veh190" type="veh_passenger" depart="56.11" departLane="best" from="150697173#2" to="24549661#1"/>
    <trip id="veh191" type="veh_passenger" depart="56.41" departLane="best" from="-102397616#1" to="150554190#1"/>
    <trip id="veh192" type="veh_passenger" depart="56.70" departLane="best" from="192428988#0" to="251816555"/>
    <trip id="veh193" type="veh_passenger" depart="57.00" departLane="best" from="270655622" to="215971176#5"/>
    <trip id="veh194" type="veh_passenger" depart="57.29" departLane="best" from="205880172" to="1055823708#1"/>
    <trip id="veh195" type="veh_passenger" depart="57.59" departLane="best" from="218271806#1" to="53175159#1"/>
    <trip id="veh196" type="veh_passenger" depart="57.89" departLane="best" from="388155249#0" to="-38152916#3"/>
    <trip id="veh198" type="veh_passenger" depart="58.48" departLane="best" from="268931672#0" to="164152502#7"/>
    <trip id="veh199" type="veh_passenger" depart="58.77" departLane="best" from="404599857#2" to="360248182#0"/>
    <trip id="veh200" type="veh_passenger" depart="59.07" departLane="best" from="-53573984#3" to="-150549252#2"/>
    <trip id="veh201" type="veh_passenger" depart="59.36" departLane="best" from="115738329#0" to="218303475"/>
    <trip id="veh202" type="veh_passenger" depart="59.66" departLane="best" from="4404114#0" to="-216128744#0"/>
    <trip id="veh203" type="veh_passenger" depart="59.95" departLane="best" from="190340310#1" to="268931655#0"/>
    <trip id="veh204" type="veh_passenger" depart="60.25" departLane="best" from="-53175069#1" to="305869959#1"/>
    <trip id="veh205" type="veh_passenger" depart="60.54" departLane="best" from="227205259#0" to="121805107#0"/>
    <trip id="veh206" type="veh_passenger" depart="60.84" departLane="best" from="270655640" to="-1101640531#0"/>
    <trip id="veh207" type="veh_passenger" depart="61.13" departLane="best" from="360248187#5" to="366073470#1"/>
    <trip id="veh208" type="veh_passenger" depart="61.43" departLane="best" from="-24608208#1" to="190462985"/>
    <trip id="veh209" type="veh_passenger" depart="61.73" departLane="best" from="-39649662#3" to="93785348"/>
    <trip id="veh210" type="veh_passenger" depart="62.02" departLane="best" from="235389907" to="-190438079#0"/>
    <trip id="veh211" type="veh_passenger" depart="62.32" departLane="best" from="127606907#3" to="4403852#3"/>
    <trip id="veh212" type="veh_passenger" depart="62.61" departLane="best" from="210441951#1" to="389119564#1"/>
    <trip id="veh213" type="veh_passenger" depart="62.91" departLane="best" from="27261757#1" to="E22_y8"/>
    <trip id="veh214" type="veh_passenger" depart="63.20" departLane="best" from="253488984" to="898416659"/>
    <trip id="veh215" type="veh_passenger" depart="63.50" departLane="best" from="531113640" to="255389622#6"/>
    <trip id="veh216" type="veh_passenger" depart="63.79" departLane="best" from="323709010" to="229679020"/>
    <trip id="veh217" type="veh_passenger" depart="64.09" departLane="best" from="415123460#4" to="24549661#1"/>
    <trip id="veh218" type="veh_passenger" depart="64.38" departLane="best" from="53175067#2" to="358953097#1"/>
    <trip id="veh219" type="veh_passenger" depart="64.68" departLane="best" from="121805106" to="268931682#0"/>
    <trip id="veh220" type="veh_passenger" depart="64.97" departLane="best" from="366073458#1" to="235391298"/>
    <trip id="veh221" type="veh_passenger" depart="65.27" departLane="best" from="268931655#0" to="150393270#3"/>
    <trip id="veh223" type="veh_passenger" depart="65.86" departLane="best" from="149996793" to="151788685"/>
    <trip id="veh224" type="veh_passenger" depart="66.16" departLane="best" from="24532391#1" to="-313209997#1"/>
    <trip id="veh225" type="veh_passenger" depart="66.45" departLane="best" from="108404025#1" to="305325048#0.14"/>
    <trip id="veh226" type="veh_passenger" depart="66.75" departLane="best" from="317890187" to="-210441945#1"/>
    <trip id="veh227" type="veh_passenger" depart="67.04" departLane="best" from="189773010#0" to="24533443#1"/>
    <trip id="veh228" type="veh_passenger" depart="67.34" departLane="best" from="190348536#0" to="-97142254"/>
    <trip id="veh229" type="veh_passenger" depart="67.63" departLane="best" from="190443836" to="53175165"/>
    <trip id="veh230" type="veh_passenger" depart="67.93" departLane="best" from="251816583#3" to="305829909#0"/>
    <trip id="veh231" type="veh_passenger" depart="68.22" departLane="best" from="4432606#1" to="365158567"/>
    <trip id="veh232" type="veh_passenger" depart="68.52" departLane="best" from="185576374#0" to="-1101640531#1"/>
    <trip id="veh234" type="veh_passenger" depart="69.11" departLane="best" from="440834669#2" to="898484255"/>
    <trip id="veh235" type="veh_passenger" depart="69.40" departLane="best" from="190443688#0" to="359726683#0"/>
    <trip id="veh236" type="veh_passenger" depart="69.70" departLane="best" from="24549476#2" to="253489003"/>
    <trip id="veh237" type="veh_passenger" depart="69.99" departLane="best" from="203461112#1" to="-150697173#1"/>
    <trip id="veh238" type="veh_passenger" depart="70.29" departLane="best" from="164152502#9" to="28646387#3"/>
    <trip id="veh239" type="veh_passenger" depart="70.59" departLane="best" from="189768759" to="-371306931"/>
    <trip id="veh240" type="veh_passenger" depart="70.88" departLane="best" from="216879574#4" to="-28646387#2"/>
    <trip id="veh241" type="veh_passenger" depart="71.18" departLane="best" from="258979265#1" to="-150556231#3"/>
    <trip id="veh242" type="veh_passenger" depart="71.47" departLane="best" from="188462504" to="249461334#4"/>
    <trip id="veh244" type="veh_passenger" depart="72.06" departLane="best" from="-306029065#5" to="215971172#1"/>
    <trip id="veh245" type="veh_passenger" depart="72.36" departLane="best" from="-190340310#0" to="185352101"/>
    <trip id="veh246" type="veh_passenger" depart="72.65" departLane="best" from="-E8_vu3" to="163419461"/>
    <trip id="veh248" type="veh_passenger" depart="73.24" departLane="best" from="127608718#0" to="-219005861"/>
    <trip id="veh249" type="veh_passenger" depart="73.54" departLane="best" from="-150393268#0" to="24532297#1"/>
    <trip id="veh250" type="veh_passenger" depart="73.83" departLane="best" from="EMk4" to="172330768"/>
    <trip id="veh251" type="veh_passenger" depart="74.13" departLane="best" from="269040901#1" to="376865249#0"/>
    <trip id="veh252" type="veh_passenger" depart="74.42" departLane="best" from="269040907#1" to="360248194"/>
    <trip id="veh253" type="veh_passenger" depart="74.72" departLane="best" from="898459770" to="-638123367#2"/>
    <trip id="veh254" type="veh_passenger" depart="75.02" departLane="best" from="-150393270#11" to="-35014374#0"/>
    <trip id="veh255" type="veh_passenger" depart="75.31" departLane="best" from="-282331231#1" to="27247877"/>
    <trip id="veh256" type="veh_passenger" depart="75.61" departLane="best" from="249461334#4" to="107085644"/>
    <trip id="veh257" type="veh_passenger" depart="75.90" departLane="best" from="30845552#1" to="366073453#1"/>
    <trip id="veh258" type="veh_passenger" depart="76.20" departLane="best" from="-377853509#0" to="254497023"/>
    <trip id="veh259" type="veh_passenger" depart="76.49" departLane="best" from="360037734#1" to="-266188220#1"/>
    <trip id="veh261" type="veh_passenger" depart="77.08" departLane="best" from="-24819999#0" to="-150556228"/>
    <trip id="veh262" type="veh_passenger" depart="77.38" departLane="best" from="150857989#1" to="28297618#0"/>
    <trip id="veh263" type="veh_passenger" depart="77.67" departLane="best" from="93785434" to="189764716#1"/>
    <trip id="veh264" type="veh_passenger" depart="77.97" departLane="best" from="320252634#2" to="-217382713#1"/>
    <trip id="veh265" type="veh_passenger" depart="78.26" departLane="best" from="305325048#0.14" to="266188220#0"/>
    <trip id="veh266" type="veh_passenger" depart="78.56" departLane="best" from="-24549661#0" to="366073475#8"/>