<?xml version="1.0" encoding="UTF-8"?>

<!-- generated on 2023-04-24 14:24:57.388318 by randomTrips.py v1_16_0+0000-94ec4c6cd72
<configuration>
    <end value="3600"/>
    <fringe-factor value="1"/>
    <min-distance value="2000.0"/>
    <net-file value="osm.net.xml"/>
    <period value="2.0"/>
    <persontrips value="True"/>
    <route-file value="osm.pedestrip.rou.xml"/>
    <trip-attributes value="modes=&quot;public&quot;"/>
    <output-trip-file value="osm.pedestrip.trips.xml"/>
    <prefix value="pedtrip"/>
    <vehicle-class value="pedestrian"/>
</configuration>
-->

<routes xmlns:xsi="http://www.w3.org/2001/XMLSchema-instance" xsi:noNamespaceSchemaLocation="http://sumo.dlr.de/xsd/routes_file.xsd">
    <vType id="pedtrip_pedestrian" vClass="pedestrian"/>
    <person id="pedtrip0" depart="0.00" type="pedtrip_pedestrian">
        <personTrip from="-842458714" to="-431889839" modes="public"/>
    </person>
    <person id="pedtrip1" depart="2.00" type="pedtrip_pedestrian">
        <personTrip from="-224885819#0" to="-229591993#2" modes="public"/>
    </person>
    <person id="pedtrip2" depart="4.00" type="pedtrip_pedestrian">
        <personTrip from="44828412#2" to="252932195#1" modes="public"/>
    </person>
    <person id="pedtrip3" depart="6.00" type="pedtrip_pedestrian">
        <personTrip from="461193238#0" to="240679919" modes="public"/>
    </person>
    <person id="pedtrip4" depart="8.00" type="pedtrip_pedestrian">
        <personTrip from="305824779#1" to="-163235128" modes="public"/>
    </person>
    <person id="pedtrip5" depart="10.00" type="pedtrip_pedestrian">
        <personTrip from="149951203" to="-396381807" modes="public"/>
    </person>
    <person id="pedtrip6" depart="12.00" type="pedtrip_pedestrian">
        <personTrip from="-739924928#0" to="744253801#1" modes="public"/>
    </person>
    <person id="pedtrip7" depart="14.00" type="pedtrip_pedestrian">
        <personTrip from="107085643" to="-744289338#1" modes="public"/>
    </person>
    <person id="pedtrip8" depart="16.00" type="pedtrip_pedestrian">
        <personTrip from="-69851729#5" to="-499676001#2" modes="public"/>
    </person>
    <person id="pedtrip9" depart="18.00" type="pedtrip_pedestrian">
        <personTrip from="162513807" to="-420551633#5" modes="public"/>
    </person>
    <person id="pedtrip10" depart="20.00" type="pedtrip_pedestrian">
        <personTrip from="-185692946#1" to="150694621#2" modes="public"/>
    </person>
    <person id="pedtrip11" depart="22.00" type="pedtrip_pedestrian">
        <personTrip from="E3_vu3" to="223139512#5" modes="public"/>
    </person>
    <person id="pedtrip12" depart="24.00" type="pedtrip_pedestrian">
        <personTrip from="499675989#2" to="-69721553" modes="public"/>
    </person>
    <person id="pedtrip13" depart="26.00" type="pedtrip_pedestrian">
        <personTrip from="205759801#1" to="-35014374#1" modes="public"/>
    </person>
    <person id="pedtrip14" depart="28.00" type="pedtrip_pedestrian">
        <personTrip from="628505596" to="48244127#1" modes="public"/>
    </person>
    <person id="pedtrip15" depart="30.00" type="pedtrip_pedestrian">
        <personTrip from="-101134190#0" to="1085759979#1" modes="public"/>
    </person>
    <person id="pedtrip16" depart="32.00" type="pedtrip_pedestrian">
        <personTrip from="227441540" to="336875060#0" modes="public"/>
    </person>
    <person id="pedtrip17" depart="34.00" type="pedtrip_pedestrian">
        <personTrip from="E21_y8" to="27244031" modes="public"/>
    </person>
    <person id="pedtrip18" depart="36.00" type="pedtrip_pedestrian">
        <personTrip from="172853474" to="215971176#4" modes="public"/>
    </person>
    <person id="pedtrip19" depart="38.00" type="pedtrip_pedestrian">
        <personTrip from="-4432606#7" to="-420551644" modes="public"/>
    </person>
    <person id="pedtrip20" depart="40.00" type="pedtrip_pedestrian">
        <personTrip from="187628743#1" to="38435460" modes="public"/>
    </person>
    <person id="pedtrip21" depart="42.00" type="pedtrip_pedestrian">
        <personTrip from="40103024" to="-363919281" modes="public"/>
    </person>
    <person id="pedtrip22" depart="44.00" type="pedtrip_pedestrian">
        <personTrip from="-363826450#1" to="175580619#1" modes="public"/>
    </person>
    <person id="pedtrip23" depart="46.00" type="pedtrip_pedestrian">
        <personTrip from="44828427#3" to="-305828580" modes="public"/>
    </person>
    <person id="pedtrip24" depart="48.00" type="pedtrip_pedestrian">
        <personTrip from="190471325#1" to="-402016813#1" modes="public"/>
    </person>
    <person id="pedtrip25" depart="50.00" type="pedtrip_pedestrian">
        <personTrip from="162513824#1" to="-178081901#3" modes="public"/>
    </person>
    <person id="pedtrip26" depart="52.00" type="pedtrip_pedestrian">
        <personTrip from="25099320#13" to="254499198#1" modes="public"/>
    </person>
    <person id="pedtrip27" depart="54.00" type="pedtrip_pedestrian">
        <personTrip from="217387509" to="741029704" modes="public"/>
    </person>
    <person id="pedtrip28" depart="56.00" type="pedtrip_pedestrian">
        <personTrip from="-379665213" to="319038251#1" modes="public"/>
    </person>
    <person id="pedtrip29" depart="58.00" type="pedtrip_pedestrian">
        <personTrip from="-459199910" to="151791264#5" modes="public"/>
    </person>
    <person id="pedtrip30" depart="60.00" type="pedtrip_pedestrian">
        <personTrip from="27409078#6" to="1020928338" modes="public"/>
    </person>
    <person id="pedtrip31" depart="62.00" type="pedtrip_pedestrian">
        <personTrip from="-196545809" to="183055815" modes="public"/>
    </person>
    <person id="pedtrip32" depart="64.00" type="pedtrip_pedestrian">
        <personTrip from="-69851760#1" to="734101731" modes="public"/>
    </person>
    <person id="pedtrip33" depart="66.00" type="pedtrip_pedestrian">
        <personTrip from="5073608#1" to="50283051" modes="public"/>
    </person>
    <person id="pedtrip34" depart="68.00" type="pedtrip_pedestrian">
        <personTrip from="149951202#2" to="-28646387#3" modes="public"/>
    </person>
    <person id="pedtrip35" depart="70.00" type="pedtrip_pedestrian">
        <personTrip from="27244260#4" to="-107085647#3" modes="public"/>
    </person>
    <person id="pedtrip36" depart="72.00" type="pedtrip_pedestrian">
        <personTrip from="409255885#1" to="1020667877" modes="public"/>
    </person>
    <person id="pedtrip37" depart="74.00" type="pedtrip_pedestrian">
        <personTrip from="445305988#1" to="-223139512#6" modes="public"/>
    </person>
    <person id="pedtrip38" depart="76.00" type="pedtrip_pedestrian">
        <personTrip from="566706097" to="-39649661" modes="public"/>
    </person>
    <person id="pedtrip39" depart="78.00" type="pedtrip_pedestrian">
        <personTrip from="402016813#1" to="5073613" modes="public"/>
    </person>
    <person id="pedtrip40" depart="80.00" type="pedtrip_pedestrian">
        <personTrip from="496347543" to="459199910" modes="public"/>
    </person>
    <person id="pedtrip41" depart="82.00" type="pedtrip_pedestrian">
        <personTrip from="39381687#1.4" to="-4404114#1" modes="public"/>
    </person>
    <person id="pedtrip42" depart="84.00" type="pedtrip_pedestrian">
        <personTrip from="93785463#1" to="227062816" modes="public"/>
    </person>
    <person id="pedtrip43" depart="86.00" type="pedtrip_pedestrian">
        <personTrip from="87712914#1" to="-69851762#0" modes="public"/>
    </person>
    <person id="pedtrip44" depart="88.00" type="pedtrip_pedestrian">
        <personTrip from="335090750" to="1063016024" modes="public"/>
    </person>
    <person id="pedtrip45" depart="90.00" type="pedtrip_pedestrian">
        <personTrip from="35134167#2" to="27409014#3" modes="public"/>
    </person>
    <person id="pedtrip46" depart="92.00" type="pedtrip_pedestrian">
        <personTrip from="142259811#1" to="-192399640#1" modes="public"/>
    </person>
    <person id="pedtrip47" depart="94.00" type="pedtrip_pedestrian">
        <personTrip from="1039204259#1" to="163413287#1" modes="public"/>
    </person>
    <person id="pedtrip48" depart="96.00" type="pedtrip_pedestrian">
        <personTrip from="-254954208#4" to="164092973#4" modes="public"/>
    </person>
    <person id="pedtrip49" depart="98.00" type="pedtrip_pedestrian">
        <personTrip from="-101123155" to="-922553159#1" modes="public"/>
    </person>
    <person id="pedtrip50" depart="100.00" type="pedtrip_pedestrian">
        <personTrip from="169689583#1" to="244233310" modes="public"/>
    </person>
    <person id="pedtrip51" depart="102.00" type="pedtrip_pedestrian">
        <personTrip from="175347881#0" to="-402016813#1" modes="public"/>
    </person>
    <person id="pedtrip52" depart="104.00" type="pedtrip_pedestrian">
        <personTrip from="44828621#2" to="-196961274#1" modes="public"/>
    </person>
    <person id="pedtrip53" depart="106.00" type="pedtrip_pedestrian">
        <personTrip from="163448476#1" to="258979261" modes="public"/>
    </person>
    <person id="pedtrip54" depart="108.00" type="pedtrip_pedestrian">
        <personTrip from="196837852" to="-48244127#1" modes="public"/>
    </person>
    <person id="pedtrip55" depart="110.00" type="pedtrip_pedestrian">
        <personTrip from="27244832#2" to="-1055823708#0" modes="public"/>
    </person>
    <person id="pedtrip56" depart="112.00" type="pedtrip_pedestrian">
        <personTrip from="216128744#1" to="-165825311#1" modes="public"/>
    </person>
    <person id="pedtrip57" depart="114.00" type="pedtrip_pedestrian">
        <personTrip from="182489785#2" to="39649661" modes="public"/>
    </person>
    <person id="pedtrip58" depart="116.00" type="pedtrip_pedestrian">
        <personTrip from="56183515#0" to="351672774" modes="public"/>
    </person>
    <person id="pedtrip59" depart="118.00" type="pedtrip_pedestrian">
        <personTrip from="187628789" to="-61965398" modes="public"/>
    </person>
    <person id="pedtrip60" depart="120.00" type="pedtrip_pedestrian">
        <personTrip from="255894050#0" to="-837369386" modes="public"/>
    </person>
    <person id="pedtrip61" depart="122.00" type="pedtrip_pedestrian">
        <personTrip from="-208426933#1" to="-915684659#0" modes="public"/>
    </person>
    <person id="pedtrip62" depart="124.00" type="pedtrip_pedestrian">
        <personTrip from="-445304352#0" to="299634630" modes="public"/>
    </person>
    <person id="pedtrip63" depart="126.00" type="pedtrip_pedestrian">
        <personTrip from="163474880#7" to="-387015293#3" modes="public"/>
    </person>
    <person id="pedtrip64" depart="128.00" type="pedtrip_pedestrian">
        <personTrip from="130540625#0" to="358953095" modes="public"/>
    </person>
    <person id="pedtrip65" depart="130.00" type="pedtrip_pedestrian">
        <personTrip from="163977303#2" to="354840830#1" modes="public"/>
    </person>
    <person id="pedtrip66" depart="132.00" type="pedtrip_pedestrian">
        <personTrip from="172808755#4" to="-150547351#5" modes="public"/>
    </person>
    <person id="pedtrip67" depart="134.00" type="pedtrip_pedestrian">
        <personTrip from="116299045" to="28173508#6" modes="public"/>
    </person>
    <person id="pedtrip68" depart="136.00" type="pedtrip_pedestrian">
        <personTrip from="163196516#0" to="-302130843#1" modes="public"/>
    </person>
    <person id="pedtrip69" depart="138.00" type="pedtrip_pedestrian">
        <personTrip from="254957234#3" to="-149951202#1" modes="public"/>
    </person>
    <person id="pedtrip70" depart="140.00" type="pedtrip_pedestrian">
        <personTrip from="-149951202#2" to="269029113" modes="public"/>
    </person>
    <person id="pedtrip71" depart="142.00" type="pedtrip_pedestrian">
        <personTrip from="-537283269#6" to="-215478533" modes="public"/>
    </person>
    <person id="pedtrip72" depart="144.00" type="pedtrip_pedestrian">
        <personTrip from="27244248#5" to="358953101#0" modes="public"/>
    </person>
    <person id="pedtrip73" depart="146.00" type="pedtrip_pedestrian">
        <personTrip from="235391643#0" to="-420551597" modes="public"/>
    </person>
    <person id="pedtrip74" depart="148.00" type="pedtrip_pedestrian">
        <personTrip from="-306045622#0" to="253489008#2" modes="public"/>
    </person>
    <person id="pedtrip75" depart="150.00" type="pedtrip_pedestrian">
        <personTrip from="356166740#6" to="-24554287" modes="public"/>
    </person>
    <person id="pedtrip76" depart="152.00" type="pedtrip_pedestrian">
        <personTrip from="415123460#3" to="894129571" modes="public"/>
    </person>
    <person id="pedtrip77" depart="154.00" type="pedtrip_pedestrian">
        <personTrip from="-240679912" to="-142248731#0" modes="public"/>
    </person>
    <person id="pedtrip78" depart="156.00" type="pedtrip_pedestrian">
        <personTrip from="85619563#14" to="152929341#2" modes="public"/>
    </person>
    <person id="pedtrip79" depart="158.00" type="pedtrip_pedestrian">
        <personTrip from="377905809#4" to="128158558#0" modes="public"/>
    </person>
    <person id="pedtrip80" depart="160.00" type="pedtrip_pedestrian">
        <personTrip from="169686795" to="149956819#2" modes="public"/>
    </person>
    <person id="pedtrip81" depart="162.00" type="pedtrip_pedestrian">
        <personTrip from="209308037#2" to="123554988#0" modes="public"/>
    </person>
    <person id="pedtrip82" depart="164.00" type="pedtrip_pedestrian">
        <personTrip from="-240321448#3" to="860204581#4" modes="public"/>
    </person>
    <person id="pedtrip83" depart="166.00" type="pedtrip_pedestrian">
        <personTrip from="306031940#0" to="172808755#1" modes="public"/>
    </person>
    <person id="pedtrip84" depart="168.00" type="pedtrip_pedestrian">
        <personTrip from="185578023#2" to="254235297" modes="public"/>
    </person>
    <person id="pedtrip85" depart="170.00" type="pedtrip_pedestrian">
        <personTrip from="44828711#1" to="-356183313" modes="public"/>
    </person>
    <person id="pedtrip86" depart="172.00" type="pedtrip_pedestrian">
        <personTrip from="-40103023#0" to="396387625" modes="public"/>
    </person>
    <person id="pedtrip87" depart="174.00" type="pedtrip_pedestrian">
        <personTrip from="-10712593#1" to="7980446#3" modes="public"/>
    </person>
    <person id="pedtrip88" depart="176.00" type="pedtrip_pedestrian">
        <personTrip from="-215971175#0" to="323036954#0" modes="public"/>
    </person>
    <person id="pedtrip89" depart="178.00" type="pedtrip_pedestrian">
        <personTrip from="295252098#2" to="270905166#1" modes="public"/>
    </person>
    <person id="pedtrip90" depart="180.00" type="pedtrip_pedestrian">
        <personTrip from="-225805143#0" to="-421517196#2" modes="public"/>
    </person>
    <person id="pedtrip91" depart="182.00" type="pedtrip_pedestrian">
        <personTrip from="295295165" to="1034115251#0" modes="public"/>
    </person>
    <person id="pedtrip92" depart="184.00" type="pedtrip_pedestrian">
        <personTrip from="35200344#3" to="110394189#0" modes="public"/>
    </person>
    <person id="pedtrip93" depart="186.00" type="pedtrip_pedestrian">
        <personTrip from="305325049#2" to="-792439375" modes="public"/>
    </person>
    <person id="pedtrip94" depart="188.00" type="pedtrip_pedestrian">
        <personTrip from="-35899344#7" to="-41270994#1" modes="public"/>
    </person>
    <person id="pedtrip95" depart="190.00" type="pedtrip_pedestrian">
        <personTrip from="92156243#3" to="218271806#1" modes="public"/>
    </person>
    <person id="pedtrip96" depart="192.00" type="pedtrip_pedestrian">
        <personTrip from="-350583201#1" to="-114323879#3" modes="public"/>
    </person>
    <person id="pedtrip97" depart="194.00" type="pedtrip_pedestrian">
        <personTrip from="226872065#0" to="-833735833" modes="public"/>
    </person>
    <person id="pedtrip98" depart="196.00" type="pedtrip_pedestrian">
        <personTrip from="475170458" to="192428988#0" modes="public"/>
    </person>
    <person id="pedtrip99" depart="198.00" type="pedtrip_pedestrian">
        <personTrip from="496357151" to="240321447#0" modes="public"/>
    </person>
    <person id="pedtrip100" depart="200.00" type="pedtrip_pedestrian">
        <personTrip from="185692946#1" to="174381136#3" modes="public"/>
    </person>
    <person id="pedtrip101" depart="202.00" type="pedtrip_pedestrian">
        <personTrip from="420551620" to="162513820" modes="public"/>
    </person>
    <person id="pedtrip102" depart="204.00" type="pedtrip_pedestrian">
        <personTrip from="-205103380#1" to="258979245#2" modes="public"/>
    </person>
    <person id="pedtrip103" depart="206.00" type="pedtrip_pedestrian">
        <personTrip from="363826450#0" to="253488997#1" modes="public"/>
    </person>
    <person id="pedtrip104" depart="208.00" type="pedtrip_pedestrian">
        <personTrip from="217387507#1" to="178081901#3" modes="public"/>
    </person>
    <person id="pedtrip105" depart="210.00" type="pedtrip_pedestrian">
        <personTrip from="254954203#1" to="253605121#2" modes="public"/>
    </person>
    <person id="pedtrip106" depart="212.00" type="pedtrip_pedestrian">
        <personTrip from="350578030" to="7980399" modes="public"/>
    </person>
    <person id="pedtrip107" depart="214.00" type="pedtrip_pedestrian">
        <personTrip from="-389119567#1" to="-39649666" modes="public"/>
    </person>
    <person id="pedtrip108" depart="216.00" type="pedtrip_pedestrian">
        <personTrip from="27245131#0" to="-285384503#0" modes="public"/>
    </person>
    <person id="pedtrip109" depart="218.00" type="pedtrip_pedestrian">
        <personTrip from="-323036955" to="-205759810#2" modes="public"/>
    </person>
    <person id="pedtrip110" depart="220.00" type="pedtrip_pedestrian">
        <personTrip from="249461334#4" to="-97301282#0" modes="public"/>
    </person>
    <person id="pedtrip111" depart="222.00" type="pedtrip_pedestrian">
        <personTrip from="289372693" to="69727110#5" modes="public"/>
    </person>
    <person id="pedtrip112" depart="224.00" type="pedtrip_pedestrian">
        <personTrip from="27245674" to="739657174" modes="public"/>
    </person>
    <person id="pedtrip113" depart="226.00" type="pedtrip_pedestrian">
        <personTrip from="420551659#0" to="-195137102#1" modes="public"/>
    </person>
    <person id="pedtrip114" depart="228.00" type="pedtrip_pedestrian">
        <personTrip from="772435592" to="205660706" modes="public"/>
    </person>
    <person id="pedtrip115" depart="230.00" type="pedtrip_pedestrian">
        <personTrip from="108404025#2" to="-53175069#4" modes="public"/>
    </person>
    <person id="pedtrip116" depart="232.00" type="pedtrip_pedestrian">
        <personTrip from="43866169#1" to="240321452" modes="public"/>
    </person>
    <person id="pedtrip117" depart="234.00" type="pedtrip_pedestrian">
        <personTrip from="27409102#3" to="-773744301" modes="public"/>
    </person>
    <person id="pedtrip118" depart="236.00" type="pedtrip_pedestrian">
        <personTrip from="-151791264#4" to="35899849#0" modes="public"/>
    </person>
    <person id="pedtrip119" depart="238.00" type="pedtrip_pedestrian">
        <personTrip from="187057791#0" to="27244248#2" modes="public"/>
    </person>
    <person id="pedtrip120" depart="240.00" type="pedtrip_pedestrian">
        <personTrip from="659292417#1" to="-356166740#4" modes="public"/>
    </person>
    <person id="pedtrip121" depart="242.00" type="pedtrip_pedestrian">
        <personTrip from="24549608#1" to="267204148#0" modes="public"/>
    </person>
    <person id="pedtrip122" depart="244.00" type="pedtrip_pedestrian">
        <personTrip from="193582128#0" to="-220677168#1" modes="public"/>
    </person>
    <person id="pedtrip123" depart="246.00" type="pedtrip_pedestrian">
        <personTrip from="163196511#1" to="215925956#1" modes="public"/>
    </person>
    <person id="pedtrip124" depart="248.00" type="pedtrip_pedestrian">
        <personTrip from="97301273#1" to="27244839#0" modes="public"/>
    </person>
    <person id="pedtrip125" depart="250.00" type="pedtrip_pedestrian">
        <personTrip from="35899849#1" to="255408092" modes="public"/>
    </person>
    <person id="pedtrip126" depart="252.00" type="pedtrip_pedestrian">
        <personTrip from="E11_Patrick7" to="630452844" modes="public"/>
    </person>
    <person id="pedtrip127" depart="254.00" type="pedtrip_pedestrian">
        <personTrip from="930192519" to="-48244093" modes="public"/>
    </person>
    <person id="pedtrip128" depart="256.00" type="pedtrip_pedestrian">
        <personTrip from="163474880#0" to="739924927#2" modes="public"/>
    </person>
    <person id="pedtrip129" depart="258.00" type="pedtrip_pedestrian">
        <personTrip from="-900651687" to="1012829105#0" modes="public"/>
    </person>
    <person id="pedtrip130" depart="260.00" type="pedtrip_pedestrian">
        <personTrip from="192064785" to="-27245677#0" modes="public"/>
    </person>
    <person id="pedtrip131" depart="262.00" type="pedtrip_pedestrian">
        <personTrip from="-360248206#2" to="300044362#2" modes="public"/>
    </person>
    <person id="pedtrip132" depart="264.00" type="pedtrip_pedestrian">
        <personTrip from="376846890#0" to="-163196517#0" modes="public"/>
    </person>
    <person id="pedtrip133" depart="266.00" type="pedtrip_pedestrian">
        <personTrip from="35200341" to="305828576" modes="public"/>
    </person>
    <person id="pedtrip134" depart="268.00" type="pedtrip_pedestrian">
        <personTrip from="328950096#1" to="163416998#2" modes="public"/>
    </person>
    <person id="pedtrip135" depart="270.00" type="pedtrip_pedestrian">
        <personTrip from="27244830" to="-27610888#0" modes="public"/>
    </person>
    <person id="pedtrip136" depart="272.00" type="pedtrip_pedestrian">
        <personTrip from="122000748#1" to="295296441#7" modes="public"/>
    </person>
    <person id="pedtrip137" depart="274.00" type="pedtrip_pedestrian">
        <personTrip from="69721870#1" to="E7_vu3" modes="public"/>
    </person>
    <person id="pedtrip138" depart="276.00" type="pedtrip_pedestrian">
        <personTrip from="354319761#3" to="172808742#0" modes="public"/>
    </person>
    <person id="pedtrip139" depart="278.00" type="pedtrip_pedestrian">
        <personTrip from="496353433" to="175491102#1" modes="public"/>
    </person>
    <person id="pedtrip140" depart="280.00" type="pedtrip_pedestrian">
        <personTrip from="-163235132" to="395673319" modes="public"/>
    </person>
    <person id="pedtrip141" depart="282.00" type="pedtrip_pedestrian">
        <personTrip from="-E1_y" to="150554193#2" modes="public"/>
    </person>
    <person id="pedtrip142" depart="284.00" type="pedtrip_pedestrian">
        <personTrip from="-27244837" to="224885819#2" modes="public"/>
    </person>
    <person id="pedtrip143" depart="286.00" type="pedtrip_pedestrian">
        <personTrip from="-464136949#0" to="630452844" modes="public"/>
    </person>
    <person id="pedtrip144" depart="288.00" type="pedtrip_pedestrian">
        <personTrip from="-27244831" to="184559614#1" modes="public"/>
    </person>
    <person id="pedtrip145" depart="290.00" type="pedtrip_pedestrian">
        <personTrip from="-561866503#0" to="-57845164" modes="public"/>
    </person>
    <person id="pedtrip146" depart="292.00" type="pedtrip_pedestrian">
        <personTrip from="57846937" to="28143932" modes="public"/>
    </person>
    <person id="pedtrip147" depart="294.00" type="pedtrip_pedestrian">
        <personTrip from="-28647571#3" to="175346072#1" modes="public"/>
    </person>
    <person id="pedtrip148" depart="296.00" type="pedtrip_pedestrian">
        <personTrip from="-53175069#2" to="4432610#4" modes="public"/>
    </person>
    <person id="pedtrip149" depart="298.00" type="pedtrip_pedestrian">
        <personTrip from="-37681849#3" to="150771745" modes="public"/>
    </person>
    <person id="pedtrip150" depart="300.00" type="pedtrip_pedestrian">
        <personTrip from="238871712" to="240321449" modes="public"/>
    </person>
    <person id="pedtrip151" depart="302.00" type="pedtrip_pedestrian">
        <personTrip from="922053739" to="27244843" modes="public"/>
    </person>
    <person id="pedtrip152" depart="304.00" type="pedtrip_pedestrian">
        <personTrip from="-165069586#7" to="253488999#0" modes="public"/>
    </person>
    <person id="pedtrip153" depart="306.00" type="pedtrip_pedestrian">
        <personTrip from="268877821" to="254952131" modes="public"/>
    </person>
    <person id="pedtrip154" depart="308.00" type="pedtrip_pedestrian">
        <personTrip from="281645781#1" to="325363713" modes="public"/>
    </person>
    <person id="pedtrip155" depart="310.00" type="pedtrip_pedestrian">
        <personTrip from="27245019" to="4404115#1" modes="public"/>
    </person>
    <person id="pedtrip156" depart="312.00" type="pedtrip_pedestrian">
        <personTrip from="174381136#7" to="244233176#0" modes="public"/>
    </person>
    <person id="pedtrip157" depart="314.00" type="pedtrip_pedestrian">
        <personTrip from="336940784" to="-218303425" modes="public"/>
    </person>
    <person id="pedtrip158" depart="316.00" type="pedtrip_pedestrian">
        <personTrip from="-En2" to="354840830#1" modes="public"/>
    </person>
    <person id="pedtrip159" depart="318.00" type="pedtrip_pedestrian">
        <personTrip from="420551642#2" to="190025138#1" modes="public"/>
    </person>
    <person id="pedtrip160" depart="320.00" type="pedtrip_pedestrian">
        <personTrip from="87712921#1" to="-27244043" modes="public"/>
    </person>
    <person id="pedtrip161" depart="322.00" type="pedtrip_pedestrian">
        <personTrip from="894189049#0" to="46022759#1" modes="public"/>
    </person>
    <person id="pedtrip162" depart="324.00" type="pedtrip_pedestrian">
        <personTrip from="33177578#0" to="930192517#0" modes="public"/>
    </person>
    <person id="pedtrip163" depart="326.00" type="pedtrip_pedestrian">
        <personTrip from="89478024#1" to="39695693#1" modes="public"/>
    </person>
    <person id="pedtrip164" depart="328.00" type="pedtrip_pedestrian">
        <personTrip from="181490370#0" to="27418199#1" modes="public"/>
    </person>
    <person id="pedtrip165" depart="330.00" type="pedtrip_pedestrian">
        <personTrip from="420551627" to="762831988" modes="public"/>
    </person>
    <person id="pedtrip166" depart="332.00" type="pedtrip_pedestrian">
        <personTrip from="102686306" to="163413287#0" modes="public"/>
    </person>
    <person id="pedtrip167" depart="334.00" type="pedtrip_pedestrian">
        <personTrip from="-230152987" to="53020756" modes="public"/>
    </person>
    <person id="pedtrip168" depart="336.00" type="pedtrip_pedestrian">
        <personTrip from="27409014#1" to="35154749" modes="public"/>
    </person>
    <person id="pedtrip169" depart="338.00" type="pedtrip_pedestrian">
        <personTrip from="792439374" to="163977303#3" modes="public"/>
    </person>
    <person id="pedtrip170" depart="340.00" type="pedtrip_pedestrian">
        <personTrip from="163474879#5" to="-231285503#2" modes="public"/>
    </person>
    <person id="pedtrip171" depart="342.00" type="pedtrip_pedestrian">
        <personTrip from="44828412#7" to="181490370#0" modes="public"/>
    </person>
    <person id="pedtrip172" depart="344.00" type="pedtrip_pedestrian">
        <personTrip from="-254952128" to="235391752" modes="public"/>
    </person>
    <person id="pedtrip173" depart="346.00" type="pedtrip_pedestrian">
        <personTrip from="-191003931#0" to="364071761#0" modes="public"/>
    </person>
    <person id="pedtrip174" depart="348.00" type="pedtrip_pedestrian">
        <personTrip from="-27245126" to="572675226#1" modes="public"/>
    </person>
    <person id="pedtrip175" depart="350.00" type="pedtrip_pedestrian">
        <personTrip from="-27244832#5" to="-255894041#0" modes="public"/>
    </person>
    <person id="pedtrip176" depart="352.00" type="pedtrip_pedestrian">
        <personTrip from="27245134#1" to="-142248731#0" modes="public"/>
    </person>
    <person id="pedtrip177" depart="354.00" type="pedtrip_pedestrian">
        <personTrip from="-33083416" to="-169689362#1" modes="public"/>
    </person>
    <person id="pedtrip178" depart="356.00" type="pedtrip_pedestrian">
        <personTrip from="-240679935#3" to="207519581" modes="public"/>
    </person>
    <person id="pedtrip179" depart="358.00" type="pedtrip_pedestrian">
        <personTrip from="79058578#1" to="-163196508" modes="public"/>
    </person>
    <person id="pedtrip180" depart="360.00" type="pedtrip_pedestrian">
        <personTrip from="379653468" to="46963207#0" modes="public"/>
    </person>
    <person id="pedtrip181" depart="362.00" type="pedtrip_pedestrian">
        <personTrip from="881002401#0" to="-181490370#0" modes="public"/>
    </person>
    <person id="pedtrip182" depart="364.00" type="pedtrip_pedestrian">
        <personTrip from="189764999#0" to="162513832#1" modes="public"/>
    </person>
    <person id="pedtrip183" depart="366.00" type="pedtrip_pedestrian">
        <personTrip from="288074072#0" to="192399641" modes="public"/>