<?xml version="1.0" encoding="UTF-8"?>

<!-- generated on 2022-10-28 14:33:54 by Eclipse SUMO netedit Version 1.14.1
-->

<additional xmlns:xsi="http://www.w3.org/2001/XMLSchema-instance" xsi:noNamespaceSchemaLocation="http://sumo.dlr.de/xsd/additional_file.xsd">
    <!-- Shapes -->
    <poly id="po_0" color="blue" fill="0" lineWidth="0.30" layer="0.00" shape="15138.656610,55862.323534 15146.036883,55866.382684 15148.029557,55861.880718 15149.505612,55859.961847 15151.572088,55857.969173 15153.121945,55856.419316 15154.302789,55855.902697 15154.598000,55856.493118 15154.155184,55857.526357 15159.690388,55860.699874 15162.347287,55857.304948 15162.642498,55857.009737 15163.011511,55857.526357 15163.749538,55857.526357 15165.004185,55854.795656 15166.258831,55853.983826 15167.882491,55853.024390 15172.753471,55851.326927 15175.115159,55850.884111 15173.639104,55843.430035 15173.048682,55843.577641 15172.458261,55843.577641 15172.089247,55842.913416 15172.605866,55842.322994 15172.458261,55842.027783 15165.594607,55837.968633 15164.192355,55840.108912 15162.642498,55842.692008 15160.502218,55844.610879 15158.730953,55846.308342 15157.402504,55846.824961 15156.074055,55848.079607 15154.376592,55848.670029 15154.598000,55847.784396 15149.284203,55844.906090 15146.258292,55848.965240 15145.003645,55850.810308 15142.272944,55852.138757 15139.394638,55854.279036 15137.180556,55855.607486 15133.711828,55857.821567 15133.269011,55856.862132 15128.914650,55854.205234 15120.722547,55864.390010 15129.726480,55869.334793 15131.350140,55867.046909 15132.899998,55865.939868 15135.778304,55864.242405 15138.656610,55862.397337 15139.837454,55863.061561 15135.261685,55856.714527 15138.951821,55862.544942"/>
    <poly id="po_1" color="blue" fill="0" lineWidth="0.20" layer="0.00" shape="15188.000000,55829.480000 15192.510000,55833.520000 15196.560000,55841.360000 15189.310000,55844.220000 15186.570000,55837.680000 15188.470000,55836.370000 15186.330000,55833.880000 15189.550000,55829.800000"/>
    <poly id="po_2" color="red" fill="0" layer="0.00" shape="15202.808232,55815.010691 15210.409913,55815.232099 15208.343437,55811.099146 15203.029640,55811.763371 15202.955838,55815.970126"/>
</additional>
