<?xml version="1.0" encoding="UTF-8"?>

<!-- generated on 2023-03-06 16:04:15.567208 by randomTrips.py v1_14_1+0000-f654d7b963e
<configuration>
    <end value="3600"/>
    <fringe-factor value="5.0"/>
    <fringe-start-attributes value="departSpeed=&quot;max&quot;"/>
    <min-distance value="600.0"/>
    <net-file value="osm.net.xml"/>
    <period value="3.0"/>
    <route-file value="osm.truck.rou.xml"/>
    <trip-attributes value="departLane=&quot;best&quot;"/>
    <output-trip-file value="osm.truck.trips.xml"/>
    <prefix value="truck"/>
    <validate value="True"/>
    <vclass value="truck"/>
    <vehicle-class value="truck"/>
</configuration>
-->

<!-- generated on 2023-03-06 16:04:14 by Eclipse SUMO duarouter Version 1.14.1
<configuration xmlns:xsi="http://www.w3.org/2001/XMLSchema-instance" xsi:noNamespaceSchemaLocation="http://sumo.dlr.de/xsd/duarouterConfiguration.xsd">

    <input>
        <net-file value="osm.net.xml"/>
        <route-files value="osm.truck.trips.xml"/>
    </input>

    <output>
        <output-file value="osm.truck.trips.xml.tmp"/>
        <alternatives-output value="NUL"/>
        <write-trips value="true"/>
    </output>

    <time>
        <begin value="0"/>
        <end value="3600"/>
    </time>

    <report>
        <no-warnings value="true"/>
        <ignore-errors value="true"/>
        <no-step-log value="true"/>
    </report>

</configuration>
-->

<routes xmlns:xsi="http://www.w3.org/2001/XMLSchema-instance" xsi:noNamespaceSchemaLocation="http://sumo.dlr.de/xsd/routes_file.xsd">
    <vType id="truck_truck" vClass="truck"/>
    <trip id="truck0" type="truck_truck" depart="0.00" departLane="best" departSpeed="max" from="1081335277" to="-442545005"/>
    <trip id="truck1" type="truck_truck" depart="3.00" departLane="best" from="320252634#10" to="270666286#1"/>
    <trip id="truck2" type="truck_truck" depart="6.00" departLane="best" from="468844962" to="-215971174#0"/>
    <trip id="truck3" type="truck_truck" depart="9.00" departLane="best" from="175580620#0" to="-150393272#0"/>
    <trip id="truck4" type="truck_truck" depart="12.00" departLane="best" from="-150393269#0" to="-364080661"/>
    <trip id="truck5" type="truck_truck" depart="15.00" departLane="best" from="258979265#0" to="23055466#5"/>
    <trip id="truck6" type="truck_truck" depart="18.00" departLane="best" from="-40438279#0" to="24573650#3"/>
    <trip id="truck8" type="truck_truck" depart="24.00" departLane="best" from="376865411#2" to="285011811#0"/>
    <trip id="truck9" type="truck_truck" depart="27.00" departLane="best" from="150549253#0" to="-27870084#2"/>
    <trip id="truck10" type="truck_truck" depart="30.00" departLane="best" from="8601802#1" to="150549249#0"/>
    <trip id="truck11" type="truck_truck" depart="33.00" departLane="best" from="-216879574#6" to="-218279122"/>
    <trip id="truck12" type="truck_truck" depart="36.00" departLane="best" from="409287503" to="249461334#1"/>
    <trip id="truck13" type="truck_truck" depart="39.00" departLane="best" from="377905808#0" to="319999605#1"/>
    <trip id="truck14" type="truck_truck" depart="42.00" departLane="best" from="227205269.83" to="95170275"/>
    <trip id="truck15" type="truck_truck" depart="45.00" departLane="best" from="155860727#1" to="23148902#8"/>
    <trip id="truck16" type="truck_truck" depart="48.00" departLane="best" from="39816394" to="251816582#2"/>
    <trip id="truck17" type="truck_truck" depart="51.00" departLane="best" from="432348158" to="24532348#0"/>
    <trip id="truck18" type="truck_truck" depart="54.00" departLane="best" from="28874733#1" to="-150857993#1"/>
    <trip id="truck19" type="truck_truck" depart="57.00" departLane="best" from="-442749531" to="127606907#0"/>
    <trip id="truck20" type="truck_truck" depart="60.00" departLane="best" from="-210362483#1" to="-53175159#0"/>
    <trip id="truck21" type="truck_truck" depart="63.00" departLane="best" from="-219005868#0" to="1101639892#1"/>
    <trip id="truck22" type="truck_truck" depart="66.00" departLane="best" from="255389622#0" to="150857993#0"/>
    <trip id="truck23" type="truck_truck" depart="69.00" departLane="best" from="107085648#0" to="644550372#0"/>
    <trip id="truck24" type="truck_truck" depart="72.00" departLane="best" from="25890468" to="251106575"/>
    <trip id="truck25" type="truck_truck" depart="75.00" departLane="best" from="-315426060#0" to="316778911#1"/>
    <trip id="truck26" type="truck_truck" depart="78.00" departLane="best" from="-30057718#2" to="155860733#2"/>
    <trip id="truck27" type="truck_truck" depart="81.00" departLane="best" from="E15.10" to="255389622#7"/>
    <trip id="truck28" type="truck_truck" depart="84.00" departLane="best" from="235391020#0" to="27245673#8"/>
    <trip id="truck29" type="truck_truck" depart="87.00" departLane="best" from="40586130#1" to="360248203#2"/>
    <trip id="truck30" type="truck_truck" depart="90.00" departLane="best" from="-4492379#1" to="-150546877#0"/>
    <trip id="truck31" type="truck_truck" depart="93.00" departLane="best" from="149951200#1" to="107085662#1"/>
    <trip id="truck32" type="truck_truck" depart="96.00" departLane="best" from="-385970247#1" to="739924926"/>
    <trip id="truck33" type="truck_truck" depart="99.00" departLane="best" from="442749533" to="149951202#3"/>
    <trip id="truck34" type="truck_truck" depart="102.00" departLane="best" from="268931664#1" to="164506584#1"/>
    <trip id="truck35" type="truck_truck" depart="105.00" departLane="best" from="53175067#4" to="190340312"/>
    <trip id="truck36" type="truck_truck" depart="108.00" departLane="best" from="107085644" to="-924549199"/>
    <trip id="truck37" type="truck_truck" depart="111.00" departLane="best" from="238870175#1" to="107085648#0"/>
    <trip id="truck38" type="truck_truck" depart="114.00" departLane="best" from="24534243#1" to="473947957#0"/>
    <trip id="truck39" type="truck_truck" depart="117.00" departLane="best" from="165720108#2.22" to="-429104325#0"/>
    <trip id="truck40" type="truck_truck" depart="120.00" departLane="best" departSpeed="max" from="E8_y9" to="217382711"/>
    <trip id="truck41" type="truck_truck" depart="123.00" departLane="best" from="-216146979" to="-150859889#0"/>
    <trip id="truck43" type="truck_truck" depart="129.00" departLane="best" from="-183654631" to="155860744"/>
    <trip id="truck44" type="truck_truck" depart="132.00" departLane="best" from="E6_vu3" to="227062816"/>
    <trip id="truck45" type="truck_truck" depart="135.00" departLane="best" from="945354770" to="432348155"/>
    <trip id="truck46" type="truck_truck" depart="138.00" departLane="best" from="-131229614#2" to="306032429"/>
    <trip id="truck47" type="truck_truck" depart="141.00" departLane="best" from="107085647#3" to="255392313#0"/>
    <trip id="truck48" type="truck_truck" depart="144.00" departLane="best" from="-240321445#5" to="184156815"/>
    <trip id="truck49" type="truck_truck" depart="147.00" departLane="best" from="189769943#0" to="8067185#4"/>
    <trip id="truck50" type="truck_truck" depart="150.00" departLane="best" from="442545005" to="107085648#2"/>
    <trip id="truck51" type="truck_truck" depart="153.00" departLane="best" from="215925850#1" to="-33083418#1"/>
    <trip id="truck52" type="truck_truck" depart="156.00" departLane="best" from="53175063#0" to="4404114#1"/>
    <trip id="truck53" type="truck_truck" depart="159.00" departLane="best" from="127608718#1" to="255389622#2"/>
    <trip id="truck54" type="truck_truck" depart="162.00" departLane="best" from="251158322#1" to="-27261757#3"/>
    <trip id="truck55" type="truck_truck" depart="165.00" departLane="best" from="358953088#1" to="229619681#1"/>
    <trip id="truck56" type="truck_truck" depart="168.00" departLane="best" from="-102486913#0" to="150393270#12"/>
    <trip id="truck57" type="truck_truck" depart="171.00" departLane="best" from="-149951202#2" to="57381284"/>
    <trip id="truck58" type="truck_truck" depart="174.00" departLane="best" from="4432606#13" to="40103023#0"/>
    <trip id="truck59" type="truck_truck" depart="177.00" departLane="best" from="147683979#2" to="-175558914#12"/>
    <trip id="truck60" type="truck_truck" depart="180.00" departLane="best" from="4432606#11" to="779043553#3"/>
    <trip id="truck61" type="truck_truck" depart="183.00" departLane="best" from="-205103380#1" to="35834153#0"/>
    <trip id="truck62" type="truck_truck" depart="186.00" departLane="best" departSpeed="max" from="35929667.403" to="-24608196#5"/>
    <trip id="truck63" type="truck_truck" depart="189.00" departLane="best" from="195137102#1" to="23148901#0"/>
    <trip id="truck64" type="truck_truck" depart="192.00" departLane="best" from="176570669#1" to="-39649666"/>
    <trip id="truck65" type="truck_truck" depart="195.00" departLane="best" from="229591994#0" to="319999605#4"/>
    <trip id="truck66" type="truck_truck" depart="198.00" departLane="best" from="-366073485#1" to="149904354"/>
    <trip id="truck68" type="truck_truck" depart="204.00" departLane="best" from="184227241#1" to="219005862"/>
    <trip id="truck70" type="truck_truck" depart="210.00" departLane="best" from="-4492384#0" to="-43578399#0"/>
    <trip id="truck71" type="truck_truck" depart="213.00" departLane="best" from="-205759801#1" to="253489003"/>
    <trip id="truck72" type="truck_truck" depart="216.00" departLane="best" from="-4492379#1" to="5097800"/>
    <trip id="truck73" type="truck_truck" depart="219.00" departLane="best" from="431557289#1" to="-205880175#0"/>
    <trip id="truck74" type="truck_truck" depart="222.00" departLane="best" from="-53175069#3" to="269040899"/>
    <trip id="truck75" type="truck_truck" depart="225.00" departLane="best" departSpeed="max" from="-388697805#0" to="-24909020#0"/>
    <trip id="truck76" type="truck_truck" depart="228.00" departLane="best" from="659292417#0" to="24377359"/>
    <trip id="truck77" type="truck_truck" depart="231.00" departLane="best" from="19354456" to="364080661"/>
    <trip id="truck78" type="truck_truck" depart="234.00" departLane="best" from="377905808#2" to="-35948955#1"/>
    <trip id="truck79" type="truck_truck" depart="237.00" departLane="best" from="-218271804" to="183654224"/>
    <trip id="truck80" type="truck_truck" depart="240.00" departLane="best" from="178376520" to="190463206#1"/>
    <trip id="truck81" type="truck_truck" depart="243.00" departLane="best" from="319999605#4" to="270655640"/>
    <trip id="truck82" type="truck_truck" depart="246.00" departLane="best" from="999857917#1" to="-219005861"/>
    <trip id="truck83" type="truck_truck" depart="249.00" departLane="best" from="432348158" to="-967938217"/>
    <trip id="truck84" type="truck_truck" depart="252.00" departLane="best" from="-35834153#0" to="189764717#0"/>
    <trip id="truck85" type="truck_truck" depart="255.00" departLane="best" from="175580620#0" to="1101640525#1"/>
    <trip id="truck86" type="truck_truck" depart="258.00" departLane="best" from="-898416657#0" to="548514763#0"/>
    <trip id="truck87" type="truck_truck" depart="261.00" departLane="best" from="187060049#1" to="432348156"/>
    <trip id="truck88" type="truck_truck" depart="264.00" departLane="best" from="23148901#0" to="-151789087#1"/>
    <trip id="truck90" type="truck_truck" depart="270.00" departLane="best" departSpeed="max" from="93785450" to="56185659"/>
    <trip id="truck91" type="truck_truck" depart="273.00" departLane="best" from="409702806#1" to="-306029065#5"/>
    <trip id="truck92" type="truck_truck" depart="276.00" departLane="best" from="206576555#1" to="-40103025"/>
    <trip id="truck93" type="truck_truck" depart="279.00" departLane="best" from="165720108#7" to="-175558914#2"/>
    <trip id="truck94" type="truck_truck" depart="282.00" departLane="best" from="155860730#1" to="E11_Patrick7"/>
    <trip id="truck95" type="truck_truck" depart="285.00" departLane="best" from="107085646#0" to="364080660#2"/>
    <trip id="truck96" type="truck_truck" depart="288.00" departLane="best" from="189776524" to="178843541"/>
    <trip id="truck97" type="truck_truck" depart="291.00" departLane="best" from="235389908#0" to="306029066#0"/>
    <trip id="truck98" type="truck_truck" depart="294.00" departLane="best" from="-27283179#1" to="131229614#3"/>
    <trip id="truck100" type="truck_truck" depart="300.00" departLane="best" from="229917857#1" to="33083419#1"/>
    <trip id="truck101" type="truck_truck" depart="303.00" departLane="best" from="-169689362#2" to="24549476#0"/>
    <trip id="truck102" type="truck_truck" depart="306.00" departLane="best" from="-282331231#1" to="89478026#0"/>
    <trip id="truck103" type="truck_truck" depart="309.00" departLane="best" from="-210362484" to="-35014374#0"/>
    <trip id="truck105" type="truck_truck" depart="315.00" departLane="best" from="-53040718#3" to="-24534083#1"/>
    <trip id="truck106" type="truck_truck" depart="318.00" departLane="best" from="466077684#1" to="-922053733#0"/>
    <trip id="truck107" type="truck_truck" depart="321.00" departLane="best" from="24608196#3" to="251816590"/>
    <trip id="truck108" type="truck_truck" depart="324.00" departLane="best" from="175558914#13" to="24534243#0"/>
    <trip id="truck109" type="truck_truck" depart="327.00" departLane="best" from="223859973" to="628505596"/>
    <trip id="truck110" type="truck_truck" depart="330.00" departLane="best" from="-371573876#3" to="306029064#0"/>
    <trip id="truck111" type="truck_truck" depart="333.00" departLane="best" from="-53175159#0" to="164506584#1"/>
    <trip id="truck112" type="truck_truck" depart="336.00" departLane="best" from="149951200#3" to="334457597#2"/>
    <trip id="truck113" type="truck_truck" depart="339.00" departLane="best" from="-205880175#1" to="190340311"/>
    <trip id="truck115" type="truck_truck" depart="345.00" departLane="best" from="-206576555#0" to="-40103023#2"/>
    <trip id="truck116" type="truck_truck" depart="348.00" departLane="best" from="150859889#0" to="-28646387#1"/>
    <trip id="truck117" type="truck_truck" depart="351.00" departLane="best" from="40104609#6" to="288074072#1"/>
    <trip id="truck118" type="truck_truck" depart="354.00" departLane="best" from="251816543" to="E13_P7"/>
    <trip id="truck119" type="truck_truck" depart="357.00" departLane="best" from="268931655#0" to="-112796201#4"/>
    <trip id="truck121" type="truck_truck" depart="363.00" departLane="best" from="269017588#1" to="692648169#0"/>
    <trip id="truck122" type="truck_truck" depart="366.00" departLane="best" from="-229591993#2" to="23263249#2"/>
    <trip id="truck123" type="truck_truck" depart="369.00" departLane="best" from="107085662#2" to="249599485"/>
    <trip id="truck124" type="truck_truck" depart="372.00" departLane="best" from="306029066#1" to="-371573876#5"/>
    <trip id="truck125" type="truck_truck" depart="375.00" departLane="best" from="207220344" to="5097800"/>
    <trip id="truck126" type="truck_truck" depart="378.00" departLane="best" departSpeed="max" from="4084172" to="-217382713#2"/>
    <trip id="truck127" type="truck_truck" depart="381.00" departLane="best" from="178376520" to="1101405927#2"/>
    <trip id="truck128" type="truck_truck" depart="384.00" departLane="best" from="-1101405928#0" to="360037734#2"/>
    <trip id="truck129" type="truck_truck" depart="387.00" departLane="best" from="32280972#1" to="23148902#7"/>
    <trip id="truck130" type="truck_truck" depart="390.00" departLane="best" from="181503326#1" to="-127606907#1"/>
    <trip id="truck131" type="truck_truck" depart="393.00" departLane="best" from="-208424711#0" to="4432614#0"/>
    <trip id="truck132" type="truck_truck" depart="396.00" departLane="best" departSpeed="max" from="5097799.75" to="230991290#0"/>
    <trip id="truck134" type="truck_truck" depart="402.00" departLane="best" from="-270684576#1" to="-24608196#2"/>
    <trip id="truck135" type="truck_truck" depart="405.00" departLane="best" from="148357182#11" to="475679571#3"/>
    <trip id="truck136" type="truck_truck" depart="408.00" departLane="best" from="369239271#2" to="431889849#3"/>
    <trip id="truck137" type="truck_truck" depart="411.00" departLane="best" from="500582850" to="-39649662#2"/>
    <trip id="truck138" type="truck_truck" depart="414.00" departLane="best" from="-85287421#1" to="-226872065#3"/>
    <trip id="truck139" type="truck_truck" depart="417.00" departLane="best" from="360787852#0" to="4432614#3"/>
    <trip id="truck141" type="truck_truck" depart="423.00" departLane="best" from="-27283179#0" to="57381284"/>
    <trip id="truck142" type="truck_truck" depart="426.00" departLane="best" from="43866170#1" to="96747828#0"/>
    <trip id="truck143" type="truck_truck" depart="429.00" departLane="best" from="380637204" to="4432606#9"/>
    <trip id="truck144" type="truck_truck" depart="432.00" departLane="best" from="150400306#1" to="584126367#0"/>
    <trip id="truck145" type="truck_truck" depart="435.00" departLane="best" from="373426448#1" to="43866169#1"/>
    <trip id="truck146" type="truck_truck" depart="438.00" departLane="best" from="380637204" to="107085658#2"/>
    <trip id="truck148" type="truck_truck" depart="444.00" departLane="best" from="4404115#1" to="429104325#0"/>
    <trip id="truck149" type="truck_truck" depart="447.00" departLane="best" from="-415123460#1" to="385970249#1"/>
    <trip id="truck150" type="truck_truck" depart="450.00" departLane="best" from="190431168#1" to="148357182#1"/>
    <trip id="truck151" type="truck_truck" depart="453.00" departLane="best" from="-150393267#3" to="-360248206#1"/>
    <trip id="truck152" type="truck_truck" depart="456.00" departLane="best" from="150393270#5" to="43866170#1"/>
    <trip id="truck154" type="truck_truck" depart="462.00" departLane="best" from="97301282#1" to="22763251#1"/>
    <trip id="truck155" type="truck_truck" depart="465.00" departLane="best" from="711528929#0" to="-240348395#6"/>
    <trip id="truck156" type="truck_truck" depart="468.00" departLane="best" from="93785463#1" to="-33083418#1"/>
    <trip id="truck157" type="truck_truck" depart="471.00" departLane="best" from="898465326#0" to="107085654#2"/>
    <trip id="truck158" type="truck_truck" depart="474.00" departLane="best" from="-23055466#1" to="184156814#2"/>
    <trip id="truck159" type="truck_truck" depart="477.00" departLane="best" from="319999605#1" to="149951202#0"/>
    <trip id="truck160" type="truck_truck" depart="480.00" departLane="best" from="251103973#3" to="217400447"/>
    <trip id="truck161" type="truck_truck" depart="483.00" departLane="best" from="163419466#0" to="24532297#1"/>
    <trip id="truck162" type="truck_truck" depart="486.00" departLane="best" from="-996858589" to="29504039#1"/>
    <trip id="truck163" type="truck_truck" depart="489.00" departLane="best" from="-1055826509" to="56185655#1"/>
    <trip id="truck164" type="truck_truck" depart="492.00" departLane="best" from="228126461#1" to="306029385#0"/>
    <trip id="truck165" type="truck_truck" depart="495.00" departLane="best" from="32280972#4" to="269040914"/>
    <trip id="truck167" type="truck_truck" depart="501.00" departLane="best" from="269017588#4" to="150540315"/>
    <trip id="truck169" type="truck_truck" depart="507.00" departLane="best" from="306032456" to="14104725#0"/>
    <trip id="truck170" type="truck_truck" depart="510.00" departLane="best" from="148357182#4" to="169689362#2"/>
    <trip id="truck171" type="truck_truck" depart="513.00" departLane="best" from="-24608191#0" to="175564779#0"/>
    <trip id="truck172" type="truck_truck" depart="516.00" departLane="best" from="724854350#1" to="270666293#1"/>
    <trip id="truck173" type="truck_truck" depart="519.00" departLane="best" from="5073616#3" to="251816566#0"/>
    <trip id="truck174" type="truck_truck" depart="522.00" departLane="best" departSpeed="max" from="130540615" to="23137781"/>
    <trip id="truck175" type="truck_truck" depart="525.00" departLane="best" from="-102486913#0" to="121805106"/>
    <trip id="truck176" type="truck_truck" depart="528.00" departLane="best" from="182489957#1" to="24533443#0"/>
    <trip id="truck177" type="truck_truck" depart="531.00" departLane="best" from="268931658" to="190458064#3"/>
    <trip id="truck178" type="truck_truck" depart="534.00" departLane="best" from="187057791#2" to="-40103025"/>
    <trip id="truck179" type="truck_truck" depart="537.00" departLane="best" from="19354458#0" to="500582851#1"/>
    <trip id="truck180" type="truck_truck" depart="540.00" departLane="best" from="369239271#1" to="-313209997#1"/>
    <trip id="truck181" type="truck_truck" depart="543.00" departLane="best" from="-214586680" to="218271808"/>
    <trip id="truck182" type="truck_truck" depart="546.00" departLane="best" from="254235290#4" to="150547351#3"/>
    <trip id="truck183" type="truck_truck" depart="549.00" departLane="best" from="387015293#3" to="334457597#0"/>
    <trip id="truck184" type="truck_truck" depart="552.00" departLane="best" from="270655645#0" to="-4492379#1"/>
    <trip id="truck185" type="truck_truck" depart="555.00" departLane="best" from="-364080660#1" to="-150393268#0"/>
    <trip id="truck186" type="truck_truck" depart="558.00" departLane="best" from="-603995680" to="195168321"/>
    <trip id="truck187" type="truck_truck" depart="561.00" departLane="best" from="174379434#2" to="253488999#2"/>
    <trip id="truck188" type="truck_truck" depart="564.00" departLane="best" from="268931670" to="-1101640525#1"/>
    <trip id="truck189" type="truck_truck" depart="567.00" departLane="best" from="334457598#0" to="360036562"/>
    <trip id="truck190" type="truck_truck" depart="570.00" departLane="best" from="-227062819#2" to="17977155#0"/>
    <trip id="truck192" type="truck_truck" depart="576.00" departLane="best" from="218303475" to="-151785743#1"/>
    <trip id="truck193" type="truck_truck" depart="579.00" departLane="best" from="-85287421#0" to="4084166"/>
    <trip id="truck194" type="truck_truck" depart="582.00" departLane="best" from="189899976" to="373426447#0"/>
    <trip id="truck195" type="truck_truck" depart="585.00" departLane="best" from="24608208#0" to="7980446#1"/>
    <trip id="truck197" type="truck_truck" depart="591.00" departLane="best" from="40103023#1" to="23137781"/>
    <trip id="truck198" type="truck_truck" depart="594.00" departLane="best" from="475679571#0" to="32280972#5"/>
    <trip id="truck199" type="truck_truck" depart="597.00" departLane="best" from="-739924927#0" to="255389621#2"/>
    <trip id="truck200" type="truck_truck" depart="600.00" departLane="best" departSpeed="max" from="35929667.403" to="220911179"/>
    <trip id="truck201" type="truck_truck" depart="603.00" departLane="best" from="253488999#1" to="108404033#1"/>
    <trip id="truck202" type="truck_truck" depart="606.00" departLane="best" from="-209308036" to="121805099"/>
    <trip id="truck203" type="truck_truck" depart="609.00" departLane="best" from="107085662#0" to="150393267#3"/>
    <trip id="truck204" type="truck_truck" depart="612.00" departLane="best" from="-46963653#1" to="27870084#0"/>
    <trip id="truck205" type="truck_truck" depart="615.00" departLane="best" from="29336163" to="-190340311"/>
    <trip id="truck206" type="truck_truck" depart="618.00" departLane="best" from="165849631" to="23055277#1"/>
    <trip id="truck207" type="truck_truck" depart="621.00" departLane="best" from="175548703" to="-38139888#1"/>
    <trip id="truck208" type="truck_truck" depart="624.00" departLane="best" from="175558914#5" to="508099915#0"/>
    <trip id="truck209" type="truck_truck" depart="627.00" departLane="best" from="24534195#1" to="28143928#1"/>
    <trip id="truck211" type="truck_truck" depart="633.00" departLane="best" from="155860733#2" to="-1101640531#0"/>
    <trip id="truck213" type="truck_truck" depart="639.00" departLane="best" from="4235244" to="8067185#3"/>
    <trip id="truck214" type="truck_truck" depart="642.00" departLane="best" from="175558914#12" to="33083418#3"/>
    <trip id="truck215" type="truck_truck" depart="645.00" departLane="best" from="-40586130#0" to="-429104325#0"/>
    <trip id="truck216" type="truck_truck" depart="648.00" departLane="best" from="184156815" to="-150393270#8"/>
    <trip id="truck217" type="truck_truck" depart="651.00" departLane="best" from="150546879#1" to="270684568#6"/>
    <trip id="truck218" type="truck_truck" depart="654.00" departLane="best" from="165825311#2" to="-306029065#1"/>
    <trip id="truck219" type="truck_truck" depart="657.00" departLane="best" from="190462985" to="-24608196#2"/>
    <trip id="truck220" type="truck_truck" depart="660.00" departLane="best" from="253488950#0" to="-150393270#14"/>
    <trip id="truck221" type="truck_truck" depart="663.00" departLane="best" from="164152502#19" to="240321445#8"/>
    <trip id="truck222" type="truck_truck" depart="666.00" departLane="best" from="-150393270#1" to="257060264#0"/>
    <trip id="truck223" type="truck_truck" depart="669.00" departLane="best" from="-253488973#1" to="190443683#2"/>
    <trip id="truck224" type="truck_truck" depart="672.00" departLane="best" from="-151785743#1" to="155860733#1"/>
    <trip id="truck225" type="truck_truck" depart="675.00" departLane="best" from="-385970249#1" to="150393270#8"/>
    <trip id="truck226" type="truck_truck" depart="678.00" departLane="best" from="35834159" to="155860733#1"/>
    <trip id="truck227" type="truck_truck" depart="681.00" departLane="best" from="339365824" to="40103023#1"/>
    <trip id="truck228" type="truck_truck" depart="684.00" departLane="best" from="-94586280#2" to="-214228962"/>
    <trip id="truck229" type="truck_truck" depart="687.00" departLane="best" from="-149951202#1" to="229619681#1"/>
    <trip id="truck230" type="truck_truck" depart="690.00" departLane="best" from="EMk4" to="150663777"/>
    <trip id="truck231" type="truck_truck" depart="693.00" departLane="best" from="258979265#0" to="364071761#1"/>
    <trip id="truck232" type="truck_truck" depart="696.00" departLane="best" from="26602743#0" to="35014371#0"/>
    <trip id="truck233" type="truck_truck" depart="699.00" departLane="best" from="7980431#1" to="-365158567"/>
    <trip id="truck234" type="truck_truck" depart="702.00" departLane="best" from="-149951202#5" to="-27261757#1"/>
    <trip id="truck235" type="truck_truck" depart="705.00" departLane="best" from="-245941530#2" to="269040904"/>
    <trip id="truck236" type="truck_truck" depart="708.00" departLane="best" from="240321445#4" to="-42465494"/>
    <trip id="truck237" type="truck_truck" depart="711.00" departLane="best" from="28646388#3" to="35948955#1"/>
    <trip id="truck238" type="truck_truck" depart="714.00" departLane="best" from="-306029065#5" to="251103973#3"/>
    <trip id="truck239" type="truck_truck" depart="717.00" departLane="best" from="388155249#1" to="898539695"/>
    <trip id="truck240" type="truck_truck" depart="720.00" departLane="best" from="-23055466#0" to="-150393270#1"/>
    <trip id="truck241" type="truck_truck" depart="723.00" departLane="best" from="148359950#1" to="270666293#1"/>
    <trip id="truck242" type="truck_truck" depart="726.00" departLane="best" from="306029064#0" to="-209308036"/>
    <trip id="truck244" type="truck_truck" depart="732.00" departLane="best" from="-220677168#1" to="360248187#0"/>
    <trip id="truck245" type="truck_truck" depart="735.00" departLane="best" from="41270994#3" to="24819999#2"/>
    <trip id="truck246" type="truck_truck" depart="738.00" departLane="best" from="364071765#0" to="150556228"/>
    <trip id="truck247" type="truck_truck" depart="741.00" departLane="best" from="182065983#1" to="150896690#1"/>
    <trip id="truck248" type="truck_truck" depart="744.00" departLane="best" from="215971176#2" to="150554190#2"/>
    <trip id="truck249" type="truck_truck" depart="747.00" departLane="best" from="41270994#1" to="388280855#4"/>
    <trip id="truck250" type="truck_truck" depart="750.00" departLane="best" from="-226872065#7" to="89478026#0"/>
    <trip id="truck251" type="truck_truck" depart="753.00" departLane="best" from="255389622#0" to="39649666"/>
    <trip id="truck252" type="truck_truck" depart="756.00" departLane="best" from="29504039#0" to="184156817"/>
    <trip id="truck253" type="truck_truck" depart="759.00" departLane="best" from="320237745" to="922053740"/>
    <trip id="truck254" type="truck_truck" depart="762.00" departLane="best" from="107085655" to="377905809#3"/>
    <trip id="truck255" type="truck_truck" depart="765.00" departLane="best" from="228126460#0" to="205880175#2"/>
    <trip id="truck256" type="truck_truck" depart="768.00" departLane="best" from="184156814#2" to="319999605#7"/>
    <trip id="truck258" type="truck_truck" depart="774.00" departLane="best" from="40103023#1" to="-215971173#0"/>
    <trip id="truck259" type="truck_truck" depart="777.00" departLane="best" from="4432610#1" to="-77668862#0"/>
    <trip id="truck260" type="truck_truck" depart="780.00" departLane="best" from="155860730#1" to="-150393270#7"/>
    <trip id="truck261" type="truck_truck" depart="783.00" departLane="best" from="415123460#0" to="-334457597#1"/>
    <trip id="truck262" type="truck_truck" depart="786.00" departLane="best" from="28745180#1" to="1085759981#0"/>
    <trip id="truck263" type="truck_truck" depart="789.00" departLane="best" from="-127606907#3" to="7942136#0"/>
    <trip id="truck264" type="truck_truck" depart="792.00" departLane="best" from="-215925850#1" to="306029386#0"/>
    <trip id="truck265" type="truck_truck" depart="795.00" departLane="best" from="207636690#0" to="35134167#2"/>
    <trip id="truck267" type="truck_truck" depart="801.00" departLane="best" from="-217382711" to="-43866170#1"/>