<?xml version="1.0" encoding="UTF-8"?>

<!-- generated on 2023-03-06 16:04:28.146405 by randomTrips.py v1_14_1+0000-f654d7b963e
<configuration>
    <end value="3600"/>
    <fringe-factor value="40.0"/>
    <fringe-start-attributes value="departSpeed=&quot;max&quot;"/>
    <net-file value="osm.net.xml"/>
    <period value="40.0"/>
    <route-file value="osm.ship.rou.xml"/>
    <output-trip-file value="osm.ship.trips.xml"/>
    <prefix value="ship"/>
    <validate value="True"/>
    <vclass value="ship"/>
    <vehicle-class value="ship"/>
</configuration>
-->

<!-- generated on 2023-03-06 16:04:27 by Eclipse SUMO duarouter Version 1.14.1
<configuration xmlns:xsi="http://www.w3.org/2001/XMLSchema-instance" xsi:noNamespaceSchemaLocation="http://sumo.dlr.de/xsd/duarouterConfiguration.xsd">

    <input>
        <net-file value="osm.net.xml"/>
        <route-files value="osm.ship.trips.xml"/>
    </input>

    <output>
        <output-file value="osm.ship.trips.xml.tmp"/>
        <alternatives-output value="NUL"/>
        <write-trips value="true"/>
    </output>

    <time>
        <begin value="0"/>
        <end value="3600"/>
    </time>

    <report>
        <no-warnings value="true"/>
        <ignore-errors value="true"/>
        <no-step-log value="true"/>
    </report>

</configuration>
-->

<routes xmlns:xsi="http://www.w3.org/2001/XMLSchema-instance" xsi:noNamespaceSchemaLocation="http://sumo.dlr.de/xsd/routes_file.xsd">
    <vType id="ship_ship" vClass="ship"/>
    <trip id="ship0" type="ship_ship" depart="0.00" departSpeed="max" from="176021667#2" to="-176021667#2"/>
    <trip id="ship1" type="ship_ship" depart="40.00" departSpeed="max" from="-182340535#1" to="-176021667#2"/>
    <trip id="ship2" type="ship_ship" depart="80.00" departSpeed="max" from="320699751.7561" to="182340535#1"/>
    <trip id="ship3" type="ship_ship" depart="120.00" departSpeed="max" from="320699751.7561" to="-176021667#2"/>
    <trip id="ship4" type="ship_ship" depart="160.00" departSpeed="max" from="176021667#2" to="-176021667#2"/>
    <trip id="ship5" type="ship_ship" depart="200.00" departSpeed="max" from="-182340535#1" to="-320699751"/>
    <trip id="ship6" type="ship_ship" depart="240.00" departSpeed="max" from="-182340535#1" to="-176021667#2"/>
    <trip id="ship7" type="ship_ship" depart="280.00" from="176021667#3" to="-320699751"/>
    <trip id="ship8" type="ship_ship" depart="320.00" departSpeed="max" from="-182340535#1" to="-320699751"/>
    <trip id="ship9" type="ship_ship" depart="360.00" departSpeed="max" from="320699751.7561" to="-176021667#2"/>
    <trip id="ship10" type="ship_ship" depart="400.00" departSpeed="max" from="320699751.7561" to="182340535#1"/>
    <trip id="ship11" type="ship_ship" depart="440.00" from="-514832816#1" to="-176021667#2"/>
    <trip id="ship12" type="ship_ship" depart="480.00" departSpeed="max" from="320699751.7561" to="-320699751"/>
    <trip id="ship13" type="ship_ship" depart="520.00" departSpeed="max" from="-182340535#1" to="-176021667#2"/>
    <trip id="ship14" type="ship_ship" depart="560.00" departSpeed="max" from="320699751.7561" to="-320699751"/>
    <trip id="ship15" type="ship_ship" depart="600.00" departSpeed="max" from="320699751.7561" to="182340535#1"/>
    <trip id="ship17" type="ship_ship" depart="680.00" departSpeed="max" from="176021667#2" to="-320699751"/>
    <trip id="ship18" type="ship_ship" depart="720.00" departSpeed="max" from="320699751.7561" to="-320699751"/>
    <trip id="ship19" type="ship_ship" depart="760.00" departSpeed="max" from="320699751.7561" to="-320699751"/>
    <trip id="ship20" type="ship_ship" depart="800.00" departSpeed="max" from="320699751.7561" to="-176021667#2"/>
    <trip id="ship21" type="ship_ship" depart="840.00" departSpeed="max" from="-182340535#1" to="-176021667#2"/>
    <trip id="ship22" type="ship_ship" depart="880.00" departSpeed="max" from="-182340535#1" to="-176021667#2"/>
    <trip id="ship23" type="ship_ship" depart="920.00" departSpeed="max" from="-182340535#1" to="-176021667#2"/>
    <trip id="ship24" type="ship_ship" depart="960.00" departSpeed="max" from="176021667#2" to="-320699751"/>
    <trip id="ship25" type="ship_ship" depart="1000.00" departSpeed="max" from="176021667#2" to="-176021667#2"/>
    <trip id="ship26" type="ship_ship" depart="1040.00" departSpeed="max" from="-182340535#1" to="182340535#1"/>
    <trip id="ship27" type="ship_ship" depart="1080.00" from="176021667#3" to="-320699751"/>
    <trip id="ship28" type="ship_ship" depart="1120.00" departSpeed="max" from="-182340535#1" to="182340535#1"/>
    <trip id="ship29" type="ship_ship" depart="1160.00" departSpeed="max" from="-182340535#1" to="-320699751"/>
    <trip id="ship30" type="ship_ship" depart="1200.00" from="514832816#0" to="-514832816#1"/>
    <trip id="ship31" type="ship_ship" depart="1240.00" departSpeed="max" from="176021667#2" to="182340535#1"/>
    <trip id="ship32" type="ship_ship" depart="1280.00" departSpeed="max" from="320699751.7561" to="182340535#1"/>
    <trip id="ship33" type="ship_ship" depart="1320.00" departSpeed="max" from="-182340535#1" to="-176021667#2"/>
    <trip id="ship34" type="ship_ship" depart="1360.00" departSpeed="max" from="-182340535#1" to="-176021667#2"/>
    <trip id="ship35" type="ship_ship" depart="1400.00" departSpeed="max" from="-182340535#1" to="182340535#1"/>
    <trip id="ship36" type="ship_ship" depart="1440.00" departSpeed="max" from="320699751.7561" to="-182340535#0"/>
    <trip id="ship37" type="ship_ship" depart="1480.00" from="182340535#0" to="-320699751"/>
    <trip id="ship38" type="ship_ship" depart="1520.00" departSpeed="max" from="320699751.7561" to="-320699751"/>
    <trip id="ship39" type="ship_ship" depart="1560.00" departSpeed="max" from="-182340535#1" to="-176021667#2"/>
    <trip id="ship40" type="ship_ship" depart="1600.00" departSpeed="max" from="176021667#2" to="-176021667#2"/>
    <trip id="ship41" type="ship_ship" depart="1640.00" departSpeed="max" from="176021667#2" to="182340535#1"/>
    <trip id="ship42" type="ship_ship" depart="1680.00" departSpeed="max" from="176021667#2" to="-176021667#2"/>
    <trip id="ship43" type="ship_ship" depart="1720.00" from="514832816#1" to="-320699751"/>
    <trip id="ship44" type="ship_ship" depart="1760.00" departSpeed="max" from="-182340535#1" to="-176021667#2"/>
    <trip id="ship45" type="ship_ship" depart="1800.00" departSpeed="max" from="-182340535#1" to="-320699751"/>
    <trip id="ship46" type="ship_ship" depart="1840.00" departSpeed="max" from="320699751.7561" to="-320699751"/>
    <trip id="ship47" type="ship_ship" depart="1880.00" departSpeed="max" from="-182340535#1" to="-320699751"/>
    <trip id="ship48" type="ship_ship" depart="1920.00" from="514832816#1" to="-320699751"/>
    <trip id="ship50" type="ship_ship" depart="2000.00" from="-182340535#0" to="182340535#1"/>
    <trip id="ship51" type="ship_ship" depart="2040.00" departSpeed="max" from="320699751.7561" to="-320699751"/>
    <trip id="ship52" type="ship_ship" depart="2080.00" departSpeed="max" from="-182340535#1" to="-514832816#1"/>
    <trip id="ship53" type="ship_ship" depart="2120.00" departSpeed="max" from="-182340535#1" to="-320699751"/>
    <trip id="ship54" type="ship_ship" depart="2160.00" departSpeed="max" from="176021667#2" to="182340535#1"/>
    <trip id="ship55" type="ship_ship" depart="2200.00" departSpeed="max" from="320699751.7561" to="-176021667#2"/>
    <trip id="ship56" type="ship_ship" depart="2240.00" departSpeed="max" from="176021667#2" to="-176021667#2"/>
    <trip id="ship57" type="ship_ship" depart="2280.00" departSpeed="max" from="320699751.7561" to="182340535#1"/>
    <trip id="ship58" type="ship_ship" depart="2320.00" departSpeed="max" from="-182340535#1" to="-514832816#1"/>
    <trip id="ship59" type="ship_ship" depart="2360.00" departSpeed="max" from="176021667#2" to="-176021667#2"/>
    <trip id="ship60" type="ship_ship" depart="2400.00" departSpeed="max" from="320699751.7561" to="-320699751"/>
    <trip id="ship61" type="ship_ship" depart="2440.00" departSpeed="max" from="320699751.7561" to="-320699751"/>
    <trip id="ship62" type="ship_ship" depart="2480.00" from="-176021667#3" to="-182340536"/>
    <trip id="ship63" type="ship_ship" depart="2520.00" departSpeed="max" from="-182340535#1" to="182340535#1"/>
    <trip id="ship64" type="ship_ship" depart="2560.00" departSpeed="max" from="320699751.7561" to="182340535#1"/>
    <trip id="ship65" type="ship_ship" depart="2600.00" departSpeed="max" from="-182340535#1" to="-176021667#2"/>
    <trip id="ship66" type="ship_ship" depart="2640.00" departSpeed="max" from="320699751.7561" to="182340535#1"/>
    <trip id="ship67" type="ship_ship" depart="2680.00" departSpeed="max" from="-182340535#1" to="-320699751"/>
    <trip id="ship68" type="ship_ship" depart="2720.00" departSpeed="max" from="-182340535#1" to="182340535#1"/>
    <trip id="ship69" type="ship_ship" depart="2760.00" departSpeed="max" from="320699751.7561" to="-176021667#2"/>
    <trip id="ship70" type="ship_ship" depart="2800.00" departSpeed="max" from="176021667#2" to="-320699751"/>
    <trip id="ship71" type="ship_ship" depart="2840.00" departSpeed="max" from="-182340535#1" to="182340535#1"/>
    <trip id="ship72" type="ship_ship" depart="2880.00" departSpeed="max" from="176021667#2" to="-176021667#2"/>
    <trip id="ship73" type="ship_ship" depart="2920.00" departSpeed="max" from="176021667#2" to="182340535#1"/>
    <trip id="ship74" type="ship_ship" depart="2960.00" departSpeed="max" from="-182340535#1" to="-182340535#0"/>
    <trip id="ship75" type="ship_ship" depart="3000.00" from="514832816#1" to="176021667#3"/>
    <trip id="ship76" type="ship_ship" depart="3040.00" departSpeed="max" from="176021667#2" to="-320699751"/>
    <trip id="ship77" type="ship_ship" depart="3080.00" departSpeed="max" from="-182340535#1" to="-176021667#2"/>
    <trip id="ship78" type="ship_ship" depart="3120.00" from="-514832816#1" to="-320699751"/>
    <trip id="ship79" type="ship_ship" depart="3160.00" departSpeed="max" from="-182340535#1" to="-176021667#2"/>
    <trip id="ship80" type="ship_ship" depart="3200.00" departSpeed="max" from="-182340535#1" to="-514832816#0"/>
    <trip id="ship81" type="ship_ship" depart="3240.00" departSpeed="max" from="-182340535#1" to="182340535#1"/>
    <trip id="ship82" type="ship_ship" depart="3280.00" departSpeed="max" from="320699751.7561" to="-176021667#2"/>
    <trip id="ship83" type="ship_ship" depart="3320.00" departSpeed="max" from="-182340535#1" to="182340535#1"/>
    <trip id="ship84" type="ship_ship" depart="3360.00" departSpeed="max" from="-182340535#1" to="-176021667#2"/>
    <trip id="ship85" type="ship_ship" depart="3400.00" departSpeed="max" from="320699751.7561" to="-320699751"/>
    <trip id="ship86" type="ship_ship" depart="3440.00" departSpeed="max" from="176021667#2" to="182340535#1"/>
    <trip id="ship87" type="ship_ship" depart="3480.00" departSpeed="max" from="320699751.7561" to="-176021667#2"/>
    <trip id="ship88" type="ship_ship" depart="3520.00" departSpeed="max" from="-182340535#1" to="-320699751"/>
    <trip id="ship89" type="ship_ship" depart="3560.00" departSpeed="max" from="176021667#2" to="-320699751"/>
</routes>
