<?xml version="1.0" encoding="UTF-8"?>

<!-- generated on 2023-03-06 16:04:19.872375 by randomTrips.py v1_14_1+0000-f654d7b963e
<configuration>
    <end value="3600"/>
    <fringe-factor value="5.0"/>
    <fringe-start-attributes value="departSpeed=&quot;max&quot;"/>
    <min-distance value="600.0"/>
    <net-file value="osm.net.xml"/>
    <period value="40.0"/>
    <route-file value="osm.bus.rou.xml"/>
    <trip-attributes value="departLane=&quot;best&quot;"/>
    <output-trip-file value="osm.bus.trips.xml"/>
    <prefix value="bus"/>
    <validate value="True"/>
    <vclass value="bus"/>
    <vehicle-class value="bus"/>
</configuration>
-->

<!-- generated on 2023-03-06 16:04:19 by Eclipse SUMO duarouter Version 1.14.1
<configuration xmlns:xsi="http://www.w3.org/2001/XMLSchema-instance" xsi:noNamespaceSchemaLocation="http://sumo.dlr.de/xsd/duarouterConfiguration.xsd">

    <input>
        <net-file value="osm.net.xml"/>
        <route-files value="osm.bus.trips.xml"/>
    </input>

    <output>
        <output-file value="osm.bus.rou.xml"/>
        <alternatives-output value="NUL"/>
    </output>

    <time>
        <begin value="0"/>
        <end value="3600"/>
    </time>

    <report>
        <no-warnings value="true"/>
        <ignore-errors value="true"/>
        <no-step-log value="true"/>
    </report>

</configuration>
-->

<routes xmlns:xsi="http://www.w3.org/2001/XMLSchema-instance" xsi:noNamespaceSchemaLocation="http://sumo.dlr.de/xsd/routes_file.xsd">
    <vType id="bus_bus" vClass="bus"/>
    <vehicle id="bus0" type="bus_bus" depart="0.00" departLane="best">
        <route edges="257676226#1 257676226#2 339365824 440834670#0 440834670#1 440834669#1 440834669#2 309717596#1 309717596#2 309717596#3 531113643 251816543 229621539#0 229619681#1 251816552 227205263 196832679 223859973 251816578 251816579 223845140 403293876 184156802#0 376865249#0 376865249#1 150395806 172333242 22763330#0 172336685 -270655645#1 -270655645#0 -371573876#7 -371573876#6 -371573876#5 -371573876#4 -371573876#3 -371573876#2 -371573876#1 -371573876#0 -371574650 -121805098#2 -121805098#1 121805099 32280972#1 32280972#2 32280972#3 121805105#0 121805105#1 -150393270#14 -150393270#12 -150393270#11 -150393270#10 -150393270#9 -150393270#8 -150393270#7 -150393270#6 -150393270#5 -150393270#4 -150393270#3 -150393270#2 -150393270#1"/>
    </vehicle>
    <vehicle id="bus1" type="bus_bus" depart="40.00" departLane="best">
        <route edges="108404027#4 108404033#1 108404033#2 164152502#17 164152502#18 164152502#18.7 164152502#18.36 164152502#18.67 164152502#18.110 164152502#19 164152502#20 203461111 203461112#1 149996793 251158323 251158322#1 548514765 228126460#0 316778911#1 287186149#1 251161865#1 781419324 404599852 404599853 251157594 548514764#2 548514763#0 189876499 160173625 360785921#0 360785921#1 5111851 360785920#0 190340308 E2_vu3 E3_vu3 E4_vu3 399741671 471554672 184227241#0 184227241#1 184227241#2 360788356 371573875 371573874 -371574650 -121805098#2 -121805098#1 121805099 32280972#1 32280972#2 32280972#3 121805105#0 121805105#1 46963653#0 46963653#1 46963653#2 -46963653#2 -46963653#1"/>
    </vehicle>
    <vehicle id="bus2" type="bus_bus" depart="80.00" departLane="best">
        <route edges="320254931 140313445#0 140313445#1 31648322#0 320256282 320239492#0 320239492#1 -104363155#1 24377359 56185654 56185655#0 56185655#1 189776524 56454445 187057791#0 187057791#1 187057791#2 23137790#2 150543795 56186952 922053740 35134167#0 35134167#2 35134167#3 276412885 276412658 189877634#0 96747828#0 56185651#3 226991208#0 228126461#1 462537200#1 462537200#1.25 249375697#1 269040901#1 189772874#0 190451914#1 251106575 251106198#0 269040918 251106111#0 189032454 269040914 898416659 269040916 190446522 190446521#2 190443686 190443685 189768761 189768759 127607180#0 175586471 175586471.19 251816582#2 251816583#3 251816583#3.6 4082985#0 253488995 189765126#0 189765126#1 189765125#0 189765125#1 189765125#2 253488997#1 189764998 189764999#0 189764716#0 189764716#1 189764717#0 190463206#1 95170275 95170275.39 93785463#0 93785463#0.10 93785463#0.22 27245673#1 27245673#2"/>
    </vehicle>
    <vehicle id="bus3" type="bus_bus" depart="120.00" departLane="best">
        <route edges="500261497 150837582#1 150837582#2 150837582#3 185579896#0 185579896#1 -185580084#1 -185580084#0 -149352823#1 -149352823#0 -253488999#3 -253488999#2 -253488999#1 -253488999#0 253489000#1 249461334#1 249461334#4 253488996 253488994 35951977#0 35951977#1 127608718#0 127608718#1 251816580 189765373 189765377 175588575#0 53175062#0 127607593 192428989 7656757 27247877 251816561 251816565#0 25586776 251816566#0 251816566#1 251816566#2 251816566#3 251816566#4 598266300#0 380637201 23148901#0 23148901#1 23148901#2 466081172 23148902#6 -215925852#1 -215925852#0 39649667 -215925857#1 -216128742"/>
    </vehicle>
    <vehicle id="bus4" type="bus_bus" depart="160.00" departLane="best">
        <route edges="17977155#0 17977155#1 127606907#0 127606907#1 127606907#2 127606907#3 E3_y 251102624#2 23567306#1 269040899 251158323 251158322#1 548514765 228126460#0 316778911#1 287186149#1 251161865#1 781419324 404599852 404599853 251157594 404477284#1 43578399#0 43578399#1 150556234#1 165823636 227062816 165828294#0 581663849 190431168#1 190431168#2 190431168#3 227062818#1 360248187#3 360248187#4 360248187#5 360248187#6 360248187#7 28143931#0 28143931#1 227062814 227062815#0 227062815#1 19354458#0 19354458#1 19354458#2 -150546875"/>
    </vehicle>
    <vehicle id="bus5" type="bus_bus" depart="200.00" departLane="best">
        <route edges="-410592139 -130540643 4082065#0 4082065#1 130540645#1 175552322 175548703 388155249#1 150851810 377851563 150851818 270666293#0 270666293#1 -150859889#1 -150859889#0 -150857433 -377853508 -377853509#1 -377853509#0 189765377 175588575#0 53175062#0 127607593 192428989 7656757 27247877 251816561 251816565#0 5475849#1 155860730#1 155860730#2 155860733#5 155860733#0 155860733#1 155860736 -155860744 -778982229#0 -121541411#0 -597172848 251816548 251820257 531113640 897661486 -603995680 -531113646 -364560741 -440604787#1 -440604787#0 -369239271#3 -369239271#2 -369239271#1 -217382713#3 -217382713#2 -217382713#1 217382713#1 217382713#2 217382713#3"/>
    </vehicle>
    <vehicle id="bus6" type="bus_bus" depart="240.00" departLane="best">
        <route edges="-150393270#1 -150393270#0 150393267#0 150393267#1 150393267#2 150393267#3 150393267#4 150393267#5 150393267#6 150393267#7 150393267#8 150393267#9 150393267#10 121805106 150393270#14 121805107#0 121805107#1 121805107#2 32280972#5 38141820 121805098#1 121805098#2 371574650 -371573874 -371573875"/>
    </vehicle>
    <vehicle id="bus7" type="bus_bus" depart="280.00" departLane="best">
        <route edges="268931655#0 305325046 305325049#0 305325049#1 305325049#2 236994807 236994808 252024823#0 252024823#2 268931656 236995001 268931659#0 4084166 268931652 187060053#0 187060055 53175058 315426061 315426062 150000852 189773010#0 149996793 190451914#1 251106575 251106198#0 269040918 251106111#0 189032454 269040914 898416659 269040916 190446522 190446521#2 190443686 190443685 189768761 189768759 150853632 189765883#0 127607593 192428989 7656757 27247877 251816561 251816565#0 25586776 251816566#0 251816566#1 251816566#2 251816566#3 251816566#4 598266300#0 380637201 23148901#0 23148901#1 23148901#2 466081172 23148902#6"/>
    </vehicle>
    <vehicle id="bus8" type="bus_bus" depart="320.00" departLane="best">
        <route edges="-429104325#0 -102397616#1 251816561 251816565#0 5475849#1 182826554 27247873 27247875 25890468 25890467 127608716 192428988#0 192428988#2 4082985#0 253488995 189765126#0 189765126#1 189765125#0 189765125#1 189765125#2 253488997#1 189764998 189764999#0 189764716#0 189764716#1 189764717#0 190463206#1 95170275 95170275.39 93785463#0 93785463#0.10 93785463#0.22 93785463#1 190458990#0 151788685 163419805#0 163419805#2 163419466#0 163419466#1 163419466#3 163419466#4 24608196#1"/>
    </vehicle>
    <vehicle id="bus9" type="bus_bus" depart="360.00" departLane="best">
        <route edges="385966809#0 385966809#1 385966809#2 385966809#3 431889825 114198527 39816394 431889849#0 431889849#1 431889849#3 228126461#1 462537200#1 462537200#1.25 548514765 228126460#0 316778911#1 287186149#1 251161865#1 781419324 404599852 404599853 251157594 548514764#2 548514763#0 189876499 160173625 360785921#0 360785921#1 5111851 360785920#0 190340308 E2_vu3 E3_vu3 E4_vu3 399741671 190340312 216879571 674280493 102774826 102749569 359947001 187057793#0 190340309 31648322#0 31648322#1 31648322#2 31648189 320240823 31648190#0 31648190#1 739924926 739924928#0 739924928#1 739924927#0 739924927#2 -240321454#2 -240321454#1 -240321454#0 -112796201#4 -112796201#3 -112796201#2 -112796201#1"/>
    </vehicle>
    <vehicle id="bus11" type="bus_bus" depart="440.00" departLane="best">
        <route edges="150554193#1 150554193#2 150554193#3 150554193#4 358953091#0 358953091#1 358953086 97301275#0 97301292#1 1055826508 1062460664 -1055826509 -1064398602#1 -1064398602#0 -43578399#1 -43578399#0 189877848 96747828#0 56185651#3 226991208#0 228126461#1 462537200#1 462537200#1.25 249375697#1 269040901#1 189772874#0 190451914#1 251106575 251106198#0 269040918 251106111#0 189032454 269040914 898416659 269040916 190446522 190446521#2 190443686 190443685 189768761 189768759 150853632 189765883#0 127607593 192428989 7656757 27247877 251816561 251816565#0 25586776 251816566#0 251816566#1 251816566#2 251816566#3 251816566#4 598266300#0 380637201 23148901#0 23148901#1 23148901#2 466081172 23148902#6 -215925852#1 -215925852#0 -215925850#1 -215925850#0 -207636690#0 -28646387#3 -28646387#2 -28646387#1"/>
    </vehicle>
    <vehicle id="bus12" type="bus_bus" depart="480.00" departLane="best">
        <route edges="867790499#0 867790499#1 253488980 149898017#0 150000852 189773010#0 149996793 251158323 251158322#1 548514765 228126460#0 316778911#1 287186149#1 251161865#1 781419324 404599852 404599853 251157594 404477284#1 43578399#0 43578399#1 150556234#1 165823636 227062816 165828294#0 581663849 190431168#1 190431168#2 190431168#3 227062820#0 150554193#0"/>
    </vehicle>
    <vehicle id="bus13" type="bus_bus" depart="520.00" departLane="best">
        <route edges="415123460#4 53175069#1 -53175069#1 -53175069#0 -415123460#3 -415123460#2 -415123460#1 -415123460#0 945388804 999859779#1 53175067#0 53175067#1 53175067#2 53175067#3 53175067#4 EMk3 EMk4 39381687#1 39381687#1.4 39381687#2 39381687#3 39381687#4 39381687#5 39381687#6 39381687#7 251816568 190348536#0 5475849#1 182826554 27247873 27247875 25890468 25890467 199383409#2 251816560#0 35951977#1 127608718#0 127608718#1 251816580 189765373 189765377 53175063#0 150851811#2 898486015 898486014#0 898486014#1 190443688#0 898480456 898465326#0 190443836 898484255 898484254 898459770 189769943#0 269040917#0 127607225#2 154656276#2 24922594#0 948937425#2 948937423 203461111 203461112#1 149996793 190451914#1 251106575 251103977#0"/>
    </vehicle>
    <vehicle id="bus14" type="bus_bus" depart="560.00" departLane="best">
        <route edges="380637205#0 E22_y8 E23_y8 EMk3 EMk4 E19_y8 E21_y8 380637201 23148901#0 23148901#1 23148901#2 466081172 466082124 466081173#0 466081173#1 -442545005 -442545004#1 -205880175#2 -205880175#1 -205880175#0 205988835 254497023 224883546 229679020 251820258 199831388 199831388.17 229619681#1 251816552 227205263 196832679 223859973 251816578 251816579 223845140 403293876 184156802#0 376865249#0 376865249#1 150540310 150540315 184156817 184156816 184156815 5466445#0 190340312 216879571 674280493 102774826 102749569 4474685 85287424 187060058#0 187060058#3 187060057#0 42760132 85270645 320185351"/>
    </vehicle>
    <vehicle id="bus15" type="bus_bus" depart="600.00" departLane="best">
        <route edges="229621539#0 227205254#1 227205254#1.11 251816547 597172848 121541411#0 121541411#1 155860744 155860740 155860733#3 171935245#0 171935245#1 171935245#2 251816561 251816565#0 5475849#1 182826554 27247873 27247875 25890468 25890467 127608716 192428988#0 192428988#2 4082985#0 253488995 189765126#0 189765126#1 189765125#0 189765125#1 189765125#2 253488997#1 150857995#0 253488999#0 253488999#1 253488999#2 253488999#3 149352823#0 149352823#1 185580084#0 185580084#1 95170297#0 53175060#1 53175060#2 724854350#0 724854350#1 95170291#1"/>
    </vehicle>
    <vehicle id="bus16" type="bus_bus" depart="640.00" departLane="best">
        <route edges="160173625 360785921#0 360785921#1 5111851 360785920#0 190340308 E2_vu3 E3_vu3 56186954 56186952 922053740 35134167#0 35134167#2 35134167#3 276412885 276412658 189877634#0 96747828#0 56185651#3 226991208#0 228126461#1 462537200#1 462537200#1.25 249375697#1 269040901#1 189772874#0 190451914#1 251106575 251106198#0 269040918 251106111#0 127607225#2 127607225#3 23567306#1"/>
    </vehicle>
    <vehicle id="bus17" type="bus_bus" depart="680.00" departLane="best">
        <route edges="40104609#6 40104609#7 206833547#0 206833547#1 -205103380#3 -205103380#2 -205103380#1 -205103380#0 -205880175#2 -205880175#1 -205880175#0 205988835 254497023 224883546 229679020 251820258 199831388 199831388.17 229619681#1 251816552 227205263 196832679 223859973 251816578 251816579 223845140 403293876 184156802#0 376865249#0 376865249#1 150540310 150540315 184156817 184156816 184156815 5466445#0 190340312 216879571 674280493 102774826 102749569 359947001 187057793#0 190340309 320252264 85287421#0 85287421#1 85287420 27429640 184156809 402016764 184156808 17977137 402016784 402016778 25209837"/>
    </vehicle>
    <vehicle id="bus18" type="bus_bus" depart="720.00" departLane="best">
        <route edges="4400845#7 -270684579 -270684576#1 -270684576#0 -4400844#0 4400844#0 270684576#0 270684576#1 270684579 22763251#0 22763251#1 22763251#2 22763251#5 -253488970#1 -253488970#0 -253488973#1 -253488968 -190462985 190462984#0 53573995#2 189764669#0 150857995#0 253488999#0 253488999#1 150857993#0 150857993#1 150857993#2 208424711#0 208424711#1 208424711#2 24534083#0 24534083#1 24534083#2"/>
    </vehicle>
    <vehicle id="bus19" type="bus_bus" depart="760.00" departLane="best">
        <route edges="292947985 184227242 25586697 812970254#0 172336783#0 270655622 251816537 71256192 251816540 223859972 251816539 251816541 227205268#1 227205269 227205269.83 251816590 155860727#0 155860727#1 155860727#2 155860741#1 155860733#1 155860733#2 155860733#3 171935245#0 171935245#1 171935245#2 251816561 251816565#0 5475849#1 182826554 27247873 27247875 25890468 25890467 127608716 192428988#0 192428988#2 4082985#0 253488995 189765126#0 189765126#1 24573650#0 24573650#2 24573650#3 46963142#1 46963142#3 190812637#1 208424711#0 208424711#1 -24532348#1 -24532348#0 -150857994#1"/>
    </vehicle>
    <vehicle id="bus20" type="bus_bus" depart="800.00" departLane="best">
        <route edges="-210441945#1 -210441945#0 -210441944 209217668 210441945#0 210441945#1 206833547#0 206833547#1 -205103380#3 -205103380#2 -205103380#1 -205103380#0 442545004#1 442545005 23148902#0 23148902#3 23148902#6 23148902#7 23148902#8 466077685 466077684#1 380637204 380637205#0 E22_y8 E23_y8 EMk3 EMk4 39381687#1 39381687#1.4 39381687#2 39381687#3 39381687#4 39381687#5 39381687#6 39381687#7 251816568 190348536#0 5475849#1 182826554 27247873 27247875 25890468 25890467 127608716 192428988#0 192428988#2 4082985#0 253488995 189765126#0 189765126#1 189765125#0 189765125#1 189765125#2 27245988#1 -175558914#13 -175558914#12 -175558914#10 -175558914#9 -175558914#8 -175558914#6 -175558914#5 -175558914#4 -175558914#2 -175558914#1 -175558914#0 -410592139 -130540643 4082065#0 4082065#1 130540639#2.9 175553114 -270684568#9 -270684568#8 -270684568#7 -270684568#6 -270684568#5 -270684568#4 -270684568#3 -270684568#2 -270684568#0 -638123367#2 -638123367#1 -638123367#0 -53573984#3 -53573984#2"/>
    </vehicle>
    <vehicle id="bus21" type="bus_bus" depart="840.00" departLane="best">
        <route edges="-226872065#0 226872065#0 226872065#1 226872065#3 226872065#4 226872065#5 226872065#6 226872065#7 226872065#8 226872065#9 226872065#10 226872065#11 216146979 33083166 219005867#1 219005868#0 219005868#1 219005869 -718155368#1 -694345941#2 24685085 280873251#0 206777521#1 23566451#0 23566451#1 335986848#2 230991290#0 251158322#1 548514765 228126460#0 23055403#1 23055403#2 431889825 114198527"/>
    </vehicle>
    <vehicle id="bus22" type="bus_bus" depart="880.00" departLane="best" departSpeed="max">
        <route edges="255823912.246 753460698 25891699 359948072 184156818 184156828 56185654 56185655#0 56185655#1 189776524 56454445 187057791#0 187057791#1 187057791#2 23137790#2 150543795 56186952 922053740 35134167#0 35134167#2 35134167#3 276412885 276412658 189877634#0 96747828#0 56185651#3 226991208#0 228126461#1 462537200#1 462537200#1.25 249375697#1 269040901#1 189772874#0 190451914#1 251106575 251106198#0 269040918 251106111#0 189032454 269040914 898416659 269040916 190446522 190446521#2 190443686 190443685 189768761 189768759 127607180#0 175586471 175586471.19 251816582#2 251816583#3 251816583#3.6 4082985#0 253488995 189765126#0 189765126#1 189765125#0 189765125#1 189765125#2 253488997#1 189764998 189764999#0 189764716#0 189764716#1 50283048#0 50283048#1 95170292#2 190462985 253488968 150896690#1 150896688#0 150896688#1 150896688#2 150896688#3"/>
    </vehicle>
    <vehicle id="bus23" type="bus_bus" depart="920.00" departLane="best">
        <route edges="151785743#1 33083988#0 33083988#1 1081335276 187061084 187061084.80 E18_y E18.17 93785348 55608997 53573995#2 189764669#0 249461334#1 249461334#4 253488996 253488994 35951977#0 35951977#1 127608718#0 127608718#1 251816580 189765373 189765377 175588575#0 53175062#0 127607593 192428989 7656757 27247877 251816561 251816565#0 25586776 251816566#0 251816566#1 251816566#2 251816566#3 251816566#4 598266300#0 380637201 23148901#0 23148901#1 23148901#2 466081172 23148902#6 -215925852#1 -215925852#0 -215925850#1 -215925850#0 -207636690#0 215971171#0 215971171#1 150893550#1 415123460#0 415123460#1 415123460#2 -218271804 40103025 -40103023#1"/>
    </vehicle>
    <vehicle id="bus24" type="bus_bus" depart="960.00" departLane="best">
        <route edges="107085654#2 387015293#2 107085646#0 107085646#1 107085666 287186163#0 287186163#1 251161865#1 781419324 404599852 404599853 251157594 548514764#2 548514763#0 189876499 160173625 360785921#0 360785921#1 5111851 360785920#0 190340308 E2_vu3 E3_vu3 E4_vu3 399741671 190340312 216879571 674280493 102774826 102749569 359947001 187057793#0 190340309 31648322#0 31648322#1 31648322#2 31648189 320240823 31648190#0 31648190#1 739924926 739924925"/>
    </vehicle>
    <vehicle id="bus25" type="bus_bus" depart="1000.00" departLane="best">
        <route edges="26602743#1 107085646#1 107085666 287186163#0 287186163#1 226991208#0 228126461#1 462537200#1 462537200#1.25 249375697#1 269040901#1 189772874#0 190451914#1 251106575 251106198#0 269040918 251106111#0 189032454 269040914 898416659 269040916 190446522 190446521#2 190443686 190443685 189768761 189768759 150853632 189765883#0 127607593 192428989 7656757 27247877 251816561 251816565#0 5475849#1 155860730#1 155860730#2 155860733#5 155860733#0 155860733#1 155860736 -155860744 -778982229#0 -121541411#0 -597172848 251816548"/>
    </vehicle>
    <vehicle id="bus26" type="bus_bus" depart="1040.00" departLane="best">
        <route edges="-317890187 317890187 150556230#1 191003929 97301277#0 189877848 96747828#0 56185651#3 226991208#0 228126461#1 462537200#1 462537200#1.25 249375697#1 269040901#1 189772874#0 190451409 269040904 230602993 190438083#1 269040907#0 269040907#1 149899941 253488977#0 42760138 149904354 460396653 218778912 268931658 42760136 268931654#1 42760135#2 42760135#3 880134845 305869959#1 898539695 -319999605#7 -319999605#6 319999605#6 319999605#7"/>
    </vehicle>
    <vehicle id="bus27" type="bus_bus" depart="1080.00" departLane="best">
        <route edges="-305829909#2 -305829909#1 -305829909#0 -35834153#0 -150549252#2 -150549252#1 320185839#0 320185351 320185500#0 320185500#1 270655640 270655641 189899508 360065008 268931672#0 268931670 268931671 268931671.29 4235244 999614640 164095588#2 305325048#0 305325048#0.14 305325046 305325049#0 305325049#1 305325049#2 236994807 5073592#0 14103491#0 251987384#1 251987384#2 251987384#3 269001615#1 235391298 237023442#0 269001613#0 269001613#1 176570669#1 185573957#0 150663777 -319999605#7 -319999605#6 -319999605#5 -319999605#4 -319999605#1 -319999605#0 -185352101 -163419466#7 -163419466#4 -163419466#3 -24608208#1 24608208#1 163419466#3"/>
    </vehicle>
    <vehicle id="bus29" type="bus_bus" depart="1160.00" departLane="best">
        <route edges="238871711#0 238871714 -898416657#1 -898416657#0 -385970249#1 269040917#0 127607225#2 127607225#3 23567306#1 269040899 251158323 251158322#1 548514765 228126460#0 316778911#1 287186149#1 251161865#1 781419324 404599852 404599853 251157594 548514764#2 548514763#0 189876499 160173625 360785921#0 360785921#1 5111851 360785920#0 190340308 E2_vu3 E3_vu3 E4_vu3 399741671 190340312 216879571 674280493 102774826 102749569 4474685 85287424 187060058#0 29350090 320207734 27283179#0 27283179#1"/>
    </vehicle>
    <vehicle id="bus30" type="bus_bus" depart="1200.00" departLane="best">
        <route edges="409287503 424501493#0 257675381 388280855#0 388280855#2 388280855#3 388280855#4 373426448#1 373426448#2 24685084#0 24685085 280873251#0 206777521#1 23566451#0 23566451#1 335986848#2 230991290#0 251158322#1 548514765 228126460#0 316778911#1 287186149#1 251161865#1 781419324 404599852 404599853 251157594 548514764#2 548514763#0 189876499 160173625 360785921#0 360785921#1 5111851 360785920#0"/>
    </vehicle>
    <vehicle id="bus31" type="bus_bus" depart="1240.00" departLane="best">
        <route edges="149956819#0 149956819#1 149956819#2 240321453#0 240321453#1 -35014371#5 -35014371#4 -35014371#3 -35014371#0 -739924928#1 -739924928#0 -739924926 -31648190#1 -31648190#0 -402016793 -31648189 128081143 320235813#0 320239492#1 -104363155#1 24377359 56185654 56185655#0 56185655#1 189776524 56454445 187057791#0 187057791#1 187057791#2 23137790#2 150543795 56186952 922053740 35134167#0 35134167#2 35134167#3 276412885 276412658 189877634#0 96747828#0 56185651#3 226991208#0 228126461#1 462537200#1 462537200#1.25 249375697#1 269040901#1 189772874#0 190451409 269040904 230602993 190438083#1 269040907#0 269040907#1 204400292 251109201 187060050#2 781345962 300035524 150857432#2 93785423 253488957#0 253488944 94586305 500261498 94586298 500261497 108404025#0 108404027#0"/>
    </vehicle>
    <vehicle id="bus32" type="bus_bus" depart="1280.00" departLane="best" departSpeed="max">
        <route edges="-388697805#0 155860744 155860740 155860733#3 155860733#4 155860733#5 155860733#0 155860733#1 155860736 -155860744 -778982229#0 -121541411#0 -597172848 251816548 251820257 531113640 897661486 257675380#0 257675380#1 584126367#0 584126367#1 584126367#2 409287503 424501493#0 257675381 388280855#0 388280855#2 388280855#3 388280855#4 373426448#1 373426448#2 24685084#0 694345941#2 778989042#0 778989042#1"/>
    </vehicle>
    <vehicle id="bus33" type="bus_bus" depart="1320.00" departLane="best">
        <route edges="4432610#3 4432610#4 4432610#5 149942614#0 149942614#1 -102486913#1 -102486913#0 -268931675#0 187060053#0 187060055 53175058 315426061 315426062 150000852 189773010#0 149996793 251158323 251158322#1 548514765 228126460#0 316778911#1 287186149#1 251161865#1 781419324 404599852 404599853 251157594 548514764#2 548514763#0 189876499 160173625 360785921#0 360785921#1 5111851 360785920#0 190340308 E2_vu3 E3_vu3 E4_vu3 399741671 471554672 184227241#0 184227241#1 184227241#2 360788356 371573875 371573874 -371574650 -121805098#2 -121805098#1 121805099 32280972#1 32280972#2 32280972#3 121805105#0 121805105#1 -150393270#14 121805110 -150393267#10 -150393267#9 150393267#9 150393267#10"/>
    </vehicle>
    <vehicle id="bus34" type="bus_bus" depart="1360.00" departLane="best">
        <route edges="269001612#2 269001612#3 269001612#4 269001612#5 235390248#0 235390248#1 305325046 305325049#0 305325049#1 305325049#2 236994807 236994808 252024823#0 252024823#2 268931656 236995001 268931659#0 4084166 268931652 187060053#0 187060055 53175058 315426061 315426062 204400292 251109201 187060050#2 781345962 -924549199 -313209997#1 -313209997#0 890797552#0 890797552#1 108404033#2 165720108#2.22 165720108#3 165720108#4 165720108#5 165720108#6"/>
    </vehicle>
    <vehicle id="bus35" type="bus_bus" depart="1400.00" departLane="best">
        <route edges="532149775#1 -532149775#1 -532149775#0 -134396877 779043553#0 779043553#1 779043553#2 779043553#3 188462687#0 208426931 319999605#1 319999605#4 319999605#5 319999605#6 319999605#7 4084169 150663777 237278283 237278282#3 268931664#1 268931665 4084166 268931652 187060053#0 187060055 53175058 315426061 315426062 150000852 189773010#0 149996793 190451914#1"/>
    </vehicle>
    <vehicle id="bus36" type="bus_bus" depart="1440.00" departLane="best">
        <route edges="240321445#4 240321445#5 240321445#6 240321445#7 240321445#8 240321445#9 306029066#0 306029066#1 306032646 306029065#0 306029065#1 306029065#2 306029065#3 306029065#4 306029065#5 -40586130#0 -35014373#3 -35014373#1 -35014373#0 -739924926 -31648190#1 -31648190#0 -402016793 -31648189 128081143 320235813#0 320239492#1 -104363155#1 24377359 56185654 56185655#0 56185655#1 189776524 56454445 187057791#0 187057791#1 187057791#2 23137790#2 150543795 56186952 922053740 35134167#0 35134167#2 35134167#3 276412885 276412658 189877634#0 96747828#0 -96851712#0 96851712#0 7980446#1 7980446#2 7980446#3 7980446#4 107085655"/>
    </vehicle>
    <vehicle id="bus37" type="bus_bus" depart="1480.00" departLane="best">
        <route edges="24554287 -24554287 -205759801#1 -205759801#0 -205422863#0 -205422861#1 -205103380#3 -205103380#2 -205103380#1 -205103380#0 442545004#1 442545005 23148902#0 23148902#3 23148902#6 23148902#7 23148902#8 466077685 466077684#1 380637204 380637205#0 E22_y8 E23_y8 EMk3 EMk4 39381687#1 39381687#1.4 39381687#2 39381687#3 39381687#4 39381687#5 39381687#6 39381687#7 251816568 190348536#0 5475849#1 182826554 27247873 27247875 25890468 25890467 127608716 192428988#0 192428988#2 4082985#0 253488995 189765126#0 189765126#1 189765125#0 189765125#1 189765125#2 253488997#1 189764998 189764669#0 164152502#4 164152502#6 164152502#7 164152502#8 164152502#9 164152502#10 164152502#11 164152502#12 164152502#13 164152502#14 164152502#14.95 164152502#15 5073616#2"/>
    </vehicle>
    <vehicle id="bus38" type="bus_bus" depart="1520.00" departLane="best">
        <route edges="165823635 626345991 97301277#0 189877848 96747828#0 56185651#3 226991208#0 228126461#1 462537200#1 462537200#1.25 249375697#1 269040901#1 189772874#0 190451914#1 251106575 251106198#0 269040918 251106111#0 189032454 269040914 898416659 269040916 190446522 190446521#2 190443686 190443685 189768761 189768759 150853632 189765883#0 127607593 192428989 7656757 27247877 251816561 251816565#0 25586776 251816566#0 251816566#1 251816566#2 251816566#3 251816566#4 598266300#0 380637201 23148901#0 23148901#1 23148901#2 466081172 466082124 466081173#0 466081173#1 -442545005"/>
    </vehicle>
    <vehicle id="bus39" type="bus_bus" depart="1560.00" departLane="best" departSpeed="max">
        <route edges="E8_y9 190451914#1 251106575 251106198#0 269040918 251106111#0 189032454 269040914 898416659 269040916 190446522 190446521#2 190443686 190443685 189768761 189768759 150853632 189765883#0 127607593 192428989 7656757 27247877 251816561 251816565#0 25586776 251816566#0 251816566#1 251816566#2 251816566#3 251816566#4 598266300#0 380637201 23148901#0 23148901#1 23148901#2 466081172 23148902#6 -215925852#1 -215925852#0 -215925850#1 -215925850#0 -207636690#0 215971171#0 215971171#1 150893550#1 415123460#0 415123460#1 415123460#2 -218271804 218271806#1"/>
    </vehicle>
    <vehicle id="bus40" type="bus_bus" depart="1600.00" departLane="best">
        <route edges="-216879574#5 -216879574#4 -216879574#3 -216879574#2 -216879574#1 56454445 187057791#0 187057791#1 187057791#2 471554672 184227241#0 184227241#1 184227241#2 184227241#4 292947985 184227242 25586697 812970254#0 172336783#0 270655622 251816537 71256192 251816540 223859972 251816539 251816541 227205268#1 227205269 227205269.83 251816590 -285011811#1 251816548 227205258#1 229619678#0 229619678#1 229619682#0 229619682#1 229591994#0 229619684 205880175#0 205880175#1 205880175#2 442545004#1 442545005 -215971173#0 33083165#0 33083165#1 215971172#0 215971172#1 216128744#1 215971171#0 215971171#1 150893550#1 -150893550#1"/>
    </vehicle>
    <vehicle id="bus41" type="bus_bus" depart="1640.00" departLane="best">