<?xml version="1.0" encoding="UTF-8"?>

<!-- generated on 2023-03-06 16:04:00.793142 by randomTrips.py v1_14_1+0000-f654d7b963e
<configuration>
    <end value="3600"/>
    <fringe-factor value="2.0"/>
    <fringe-start-attributes value="departSpeed=&quot;max&quot;"/>
    <max-distance value="1200.0"/>
    <net-file value="osm.net.xml"/>
    <period value="5.0"/>
    <route-file value="osm.motorcycle.rou.xml"/>
    <trip-attributes value="departLane=&quot;best&quot;"/>
    <output-trip-file value="osm.motorcycle.trips.xml"/>
    <prefix value="moto"/>
    <validate value="True"/>
    <vclass value="motorcycle"/>
    <vehicle-class value="motorcycle"/>
</configuration>
-->

<!-- generated on 2023-03-06 16:04:00 by Eclipse SUMO duarouter Version 1.14.1
<configuration xmlns:xsi="http://www.w3.org/2001/XMLSchema-instance" xsi:noNamespaceSchemaLocation="http://sumo.dlr.de/xsd/duarouterConfiguration.xsd">

    <input>
        <net-file value="osm.net.xml"/>
        <route-files value="osm.motorcycle.trips.xml"/>
    </input>

    <output>
        <output-file value="osm.motorcycle.trips.xml.tmp"/>
        <alternatives-output value="NUL"/>
        <write-trips value="true"/>
    </output>

    <time>
        <begin value="0"/>
        <end value="3600"/>
    </time>

    <report>
        <no-warnings value="true"/>
        <ignore-errors value="true"/>
        <no-step-log value="true"/>
    </report>

</configuration>
-->

<routes xmlns:xsi="http://www.w3.org/2001/XMLSchema-instance" xsi:noNamespaceSchemaLocation="http://sumo.dlr.de/xsd/routes_file.xsd">
    <vType id="moto_motorcycle" vClass="motorcycle"/>
    <trip id="moto0" type="moto_motorcycle" depart="0.00" departLane="best" from="107085651#1" to="-4248376"/>
    <trip id="moto1" type="moto_motorcycle" depart="5.00" departLane="best" from="319999605#1" to="269040901#1"/>
    <trip id="moto2" type="moto_motorcycle" depart="10.00" departLane="best" from="-150393267#4" to="-360787852#0"/>
    <trip id="moto3" type="moto_motorcycle" depart="15.00" departLane="best" from="371573875" to="27283179#0"/>
    <trip id="moto4" type="moto_motorcycle" depart="20.00" departLane="best" from="-215925857#1" to="-217382714"/>
    <trip id="moto5" type="moto_motorcycle" depart="25.00" departLane="best" from="371573876#4" to="30845552#2"/>
    <trip id="moto6" type="moto_motorcycle" depart="30.00" departLane="best" from="282331231#0" to="-150856067"/>
    <trip id="moto7" type="moto_motorcycle" depart="35.00" departLane="best" from="-206972903" to="-520824524#1"/>
    <trip id="moto8" type="moto_motorcycle" depart="40.00" departLane="best" from="253488994" to="150851814#0"/>
    <trip id="moto9" type="moto_motorcycle" depart="45.00" departLane="best" from="1055823708#2" to="626581542"/>
    <trip id="moto10" type="moto_motorcycle" depart="50.00" departLane="best" from="-27870084#0" to="151789087#1"/>
    <trip id="moto11" type="moto_motorcycle" depart="55.00" departLane="best" departSpeed="max" from="E11_P7" to="253489009#0"/>
    <trip id="moto13" type="moto_motorcycle" depart="65.00" departLane="best" from="-432348155" to="-150546875"/>
    <trip id="moto14" type="moto_motorcycle" depart="70.00" departLane="best" from="148357183#0" to="107085647#2"/>
    <trip id="moto15" type="moto_motorcycle" depart="75.00" departLane="best" from="-371573876#0" to="694345941#2"/>
    <trip id="moto16" type="moto_motorcycle" depart="80.00" departLane="best" from="531113646" to="189765373"/>
    <trip id="moto17" type="moto_motorcycle" depart="85.00" departLane="best" from="E7_y" to="215925855"/>
    <trip id="moto18" type="moto_motorcycle" depart="90.00" departLane="best" from="364080661" to="174379435"/>
    <trip id="moto19" type="moto_motorcycle" depart="95.00" departLane="best" from="93785423" to="4248376"/>
    <trip id="moto20" type="moto_motorcycle" depart="100.00" departLane="best" from="270655645#0" to="227062813#1"/>
    <trip id="moto21" type="moto_motorcycle" depart="105.00" departLane="best" from="187628738#0" to="7980446#4"/>
    <trip id="moto22" type="moto_motorcycle" depart="110.00" departLane="best" from="4404113#5" to="1055823709#1"/>
    <trip id="moto23" type="moto_motorcycle" depart="115.00" departLane="best" from="208424711#2" to="-319999605#6"/>
    <trip id="moto24" type="moto_motorcycle" depart="120.00" departLane="best" from="35014373#1" to="227062817"/>
    <trip id="moto25" type="moto_motorcycle" depart="125.00" departLane="best" from="-210362483#1" to="203502996"/>
    <trip id="moto27" type="moto_motorcycle" depart="135.00" departLane="best" from="1038224266#0" to="4403852#1"/>
    <trip id="moto28" type="moto_motorcycle" depart="140.00" departLane="best" from="E3_vu3" to="255393423"/>
    <trip id="moto29" type="moto_motorcycle" depart="145.00" departLane="best" from="182489958" to="216879574#5"/>
    <trip id="moto30" type="moto_motorcycle" depart="150.00" departLane="best" from="-502060955#1" to="269001612#5"/>
    <trip id="moto31" type="moto_motorcycle" depart="155.00" departLane="best" from="603995680" to="238870176#0"/>
    <trip id="moto32" type="moto_motorcycle" depart="160.00" departLane="best" from="371573876#5" to="-35014373#1"/>
    <trip id="moto33" type="moto_motorcycle" depart="165.00" departLane="best" from="4248376" to="-7980450#1"/>
    <trip id="moto34" type="moto_motorcycle" depart="170.00" departLane="best" from="174379434#1" to="108404031#1"/>
    <trip id="moto35" type="moto_motorcycle" depart="175.00" departLane="best" from="184156814#2" to="42760132"/>
    <trip id="moto36" type="moto_motorcycle" depart="180.00" departLane="best" from="EMk2" to="39649668#3"/>
    <trip id="moto37" type="moto_motorcycle" depart="185.00" departLane="best" from="922053740" to="5475488#1"/>
    <trip id="moto38" type="moto_motorcycle" depart="190.00" departLane="best" from="199831388" to="-385970247#2"/>
    <trip id="moto39" type="moto_motorcycle" depart="195.00" departLane="best" from="164152502#18.7" to="-171453050"/>
    <trip id="moto40" type="moto_motorcycle" depart="200.00" departLane="best" from="1038224266#1" to="360248211#1"/>
    <trip id="moto41" type="moto_motorcycle" depart="205.00" departLane="best" from="8067185#4" to="E3_y"/>
    <trip id="moto42" type="moto_motorcycle" depart="210.00" departLane="best" from="-270684568#9" to="127607180#0"/>
    <trip id="moto43" type="moto_motorcycle" depart="215.00" departLane="best" from="922053733#1" to="240348395#4"/>
    <trip id="moto44" type="moto_motorcycle" depart="220.00" departLane="best" from="227062820#0" to="320630988#2"/>
    <trip id="moto45" type="moto_motorcycle" depart="225.00" departLane="best" from="-206972905" to="-332237966"/>
    <trip id="moto46" type="moto_motorcycle" depart="230.00" departLane="best" from="-4492384#1" to="-240348395#5"/>
    <trip id="moto47" type="moto_motorcycle" depart="235.00" departLane="best" from="24534243#0" to="251158323"/>
    <trip id="moto49" type="moto_motorcycle" depart="245.00" departLane="best" from="218025853#2" to="597172848"/>
    <trip id="moto50" type="moto_motorcycle" depart="250.00" departLane="best" from="-190462985" to="189765126#0"/>
    <trip id="moto51" type="moto_motorcycle" depart="255.00" departLane="best" from="1038224266#1" to="581663849"/>
    <trip id="moto52" type="moto_motorcycle" depart="260.00" departLane="best" from="440834670#1" to="440834669#1"/>
    <trip id="moto53" type="moto_motorcycle" depart="265.00" departLane="best" from="-219005868#0" to="23055403#2"/>
    <trip id="moto54" type="moto_motorcycle" depart="270.00" departLane="best" from="-1064398602#0" to="358953091#1"/>
    <trip id="moto55" type="moto_motorcycle" depart="275.00" departLane="best" from="320235813#0" to="229917857#1"/>
    <trip id="moto56" type="moto_motorcycle" depart="280.00" departLane="best" from="500261497" to="227205269.83"/>
    <trip id="moto57" type="moto_motorcycle" depart="285.00" departLane="best" from="-266188220#0" to="-24534243#1"/>
    <trip id="moto58" type="moto_motorcycle" depart="290.00" departLane="best" from="360248187#3" to="4432606#2"/>
    <trip id="moto59" type="moto_motorcycle" depart="295.00" departLane="best" from="165720108#0.94" to="251816537"/>
    <trip id="moto60" type="moto_motorcycle" depart="300.00" departLane="best" from="150393270#14" to="56186954"/>
    <trip id="moto61" type="moto_motorcycle" depart="305.00" departLane="best" from="366073483#1" to="429104325#1"/>
    <trip id="moto62" type="moto_motorcycle" depart="310.00" departLane="best" from="-39649666" to="37825125#6"/>
    <trip id="moto63" type="moto_motorcycle" depart="315.00" departLane="best" from="366073452#1" to="-442545005"/>
    <trip id="moto64" type="moto_motorcycle" depart="320.00" departLane="best" from="-149951202#7" to="-356166740#5"/>
    <trip id="moto65" type="moto_motorcycle" depart="325.00" departLane="best" from="898484254" to="108404031#2"/>
    <trip id="moto66" type="moto_motorcycle" depart="330.00" departLane="best" from="253536521#0" to="164152502#18.67"/>
    <trip id="moto67" type="moto_motorcycle" depart="335.00" departLane="best" from="967938217" to="226872065#9"/>
    <trip id="moto68" type="moto_motorcycle" depart="340.00" departLane="best" from="-85287421#1" to="287186163#0"/>
    <trip id="moto69" type="moto_motorcycle" depart="345.00" departLane="best" from="227062813#2" to="305325048#0"/>
    <trip id="moto70" type="moto_motorcycle" depart="350.00" departLane="best" from="148357182#3" to="404599853"/>
    <trip id="moto71" type="moto_motorcycle" depart="355.00" departLane="best" from="134394675#2" to="165720115#4"/>
    <trip id="moto72" type="moto_motorcycle" depart="360.00" departLane="best" from="659292417#1" to="269040907#0"/>
    <trip id="moto73" type="moto_motorcycle" depart="365.00" departLane="best" from="127606907#0" to="228126461#1"/>
    <trip id="moto74" type="moto_motorcycle" depart="370.00" departLane="best" from="175586471" to="240348395#6"/>
    <trip id="moto75" type="moto_motorcycle" depart="375.00" departLane="best" from="-209308037#3" to="216128744#1"/>
    <trip id="moto77" type="moto_motorcycle" depart="385.00" departLane="best" from="25890124" to="-1101639891"/>
    <trip id="moto78" type="moto_motorcycle" depart="390.00" departLane="best" from="323709010" to="358953088#0"/>
    <trip id="moto79" type="moto_motorcycle" depart="395.00" departLane="best" from="189764669#0" to="366073483#1"/>
    <trip id="moto80" type="moto_motorcycle" depart="400.00" departLane="best" from="24549476#2" to="781345962"/>
    <trip id="moto81" type="moto_motorcycle" depart="405.00" departLane="best" from="4432618#3" to="24916962#1"/>
    <trip id="moto82" type="moto_motorcycle" depart="410.00" departLane="best" from="-440604787#0" to="27245997#3"/>
    <trip id="moto84" type="moto_motorcycle" depart="420.00" departLane="best" from="151785743#1" to="-1101639892#1"/>
    <trip id="moto85" type="moto_motorcycle" depart="425.00" departLane="best" from="227205269" to="24608195#1"/>
    <trip id="moto86" type="moto_motorcycle" depart="430.00" departLane="best" from="-150859889#0" to="151785784#2"/>
    <trip id="moto87" type="moto_motorcycle" depart="435.00" departLane="best" from="257675380#0" to="33083418#3"/>
    <trip id="moto88" type="moto_motorcycle" depart="440.00" departLane="best" from="-24532297#1" to="269001613#0"/>
    <trip id="moto89" type="moto_motorcycle" depart="445.00" departLane="best" from="14104725#2" to="269040907#0"/>
    <trip id="moto90" type="moto_motorcycle" depart="450.00" departLane="best" from="29504037" to="-206972903"/>
    <trip id="moto91" type="moto_motorcycle" depart="455.00" departLane="best" from="27245673#3" to="251816580"/>
    <trip id="moto92" type="moto_motorcycle" depart="460.00" departLane="best" from="360248197#1" to="150554193#3"/>
    <trip id="moto93" type="moto_motorcycle" depart="465.00" departLane="best" from="175558914#8" to="150857993#0"/>
    <trip id="moto94" type="moto_motorcycle" depart="470.00" departLane="best" from="1064398602#0" to="373426447#0"/>
    <trip id="moto95" type="moto_motorcycle" depart="475.00" departLane="best" from="181844308" to="309717596#3"/>
    <trip id="moto96" type="moto_motorcycle" depart="480.00" departLane="best" from="40586130#3" to="-320252634#8"/>
    <trip id="moto98" type="moto_motorcycle" depart="490.00" departLane="best" from="-215971171#0" to="-415123460#0"/>
    <trip id="moto99" type="moto_motorcycle" depart="495.00" departLane="best" from="320252634#5" to="150393270#6"/>
    <trip id="moto100" type="moto_motorcycle" depart="500.00" departLane="best" from="28143928#0" to="107085654#1"/>
    <trip id="moto101" type="moto_motorcycle" depart="505.00" departLane="best" from="948937424#0" to="218279123"/>
    <trip id="moto102" type="moto_motorcycle" depart="510.00" departLane="best" from="94586280#0" to="23055404#1"/>
    <trip id="moto103" type="moto_motorcycle" depart="515.00" departLane="best" from="27261757#1" to="-24534186#1"/>
    <trip id="moto104" type="moto_motorcycle" depart="520.00" departLane="best" from="190443683#0" to="184156802#0"/>
    <trip id="moto105" type="moto_motorcycle" depart="525.00" departLane="best" from="385970247#1" to="164152502#20"/>
    <trip id="moto106" type="moto_motorcycle" depart="530.00" departLane="best" from="-151785743#1" to="-270684568#3"/>
    <trip id="moto107" type="moto_motorcycle" depart="535.00" departLane="best" from="364080659#1" to="-43866170#0"/>
    <trip id="moto108" type="moto_motorcycle" depart="540.00" departLane="best" from="218025853#1" to="187060055"/>
    <trip id="moto109" type="moto_motorcycle" depart="545.00" departLane="best" from="251816537" to="24685085"/>
    <trip id="moto110" type="moto_motorcycle" depart="550.00" departLane="best" from="-364560741" to="-377853509#1"/>
    <trip id="moto111" type="moto_motorcycle" depart="555.00" departLane="best" from="26602743#0" to="-27261757#0"/>
    <trip id="moto112" type="moto_motorcycle" depart="560.00" departLane="best" from="-440604787#0" to="28646387#3"/>
    <trip id="moto113" type="moto_motorcycle" depart="565.00" departLane="best" from="175553144" to="227205263"/>
    <trip id="moto114" type="moto_motorcycle" depart="570.00" departLane="best" from="255389622#6" to="5073616#2"/>
    <trip id="moto115" type="moto_motorcycle" depart="575.00" departLane="best" from="270684579" to="27315344#1"/>
    <trip id="moto116" type="moto_motorcycle" depart="580.00" departLane="best" from="206306024" to="-209308037#1"/>
    <trip id="moto117" type="moto_motorcycle" depart="585.00" departLane="best" from="190443685" to="257675380#0"/>
    <trip id="moto118" type="moto_motorcycle" depart="590.00" departLane="best" from="24470195#0" to="253488973#1"/>
    <trip id="moto119" type="moto_motorcycle" depart="595.00" departLane="best" from="205759812" to="-215971175#0"/>
    <trip id="moto120" type="moto_motorcycle" depart="600.00" departLane="best" from="377853508" to="229619682#1"/>
    <trip id="moto121" type="moto_motorcycle" depart="605.00" departLane="best" from="149951202#5" to="930192518"/>
    <trip id="moto122" type="moto_motorcycle" depart="610.00" departLane="best" from="227062821#0" to="165849627#7"/>
    <trip id="moto123" type="moto_motorcycle" depart="615.00" departLane="best" from="-33083418#3" to="150834642#1"/>
    <trip id="moto124" type="moto_motorcycle" depart="620.00" departLane="best" from="229591994#0" to="548514765"/>
    <trip id="moto125" type="moto_motorcycle" depart="625.00" departLane="best" from="182489958" to="27283179#1"/>
    <trip id="moto126" type="moto_motorcycle" depart="630.00" departLane="best" from="29504040" to="215925850#2"/>
    <trip id="moto127" type="moto_motorcycle" depart="635.00" departLane="best" from="95170298.51" to="-638123367#0"/>
    <trip id="moto128" type="moto_motorcycle" depart="640.00" departLane="best" from="229619684" to="155860733#1"/>
    <trip id="moto129" type="moto_motorcycle" depart="645.00" departLane="best" from="440604787#0" to="429104325#1"/>
    <trip id="moto131" type="moto_motorcycle" depart="655.00" departLane="best" from="211994459#1" to="385966809#0"/>
    <trip id="moto132" type="moto_motorcycle" depart="660.00" departLane="best" from="108404027#3" to="127608718#1"/>
    <trip id="moto133" type="moto_motorcycle" depart="665.00" departLane="best" from="227062813#3" to="150549933#0"/>
    <trip id="moto134" type="moto_motorcycle" depart="670.00" departLane="best" from="229679020" to="227205254#1"/>
    <trip id="moto135" type="moto_motorcycle" depart="675.00" departLane="best" from="-33083987#0" to="27261757#2"/>
    <trip id="moto136" type="moto_motorcycle" depart="680.00" departLane="best" from="238870176#0" to="-520824524#3"/>
    <trip id="moto137" type="moto_motorcycle" depart="685.00" departLane="best" from="35952188" to="-150834642#2"/>
    <trip id="moto138" type="moto_motorcycle" depart="690.00" departLane="best" from="268931659#0" to="385966809#0"/>
    <trip id="moto139" type="moto_motorcycle" depart="695.00" departLane="best" from="96747828#0" to="206972874#1"/>
    <trip id="moto140" type="moto_motorcycle" depart="700.00" departLane="best" from="305829911#1" to="165825311#0"/>
    <trip id="moto141" type="moto_motorcycle" depart="705.00" departLane="best" from="190443683#0" to="924549199"/>
    <trip id="moto142" type="moto_motorcycle" depart="710.00" departLane="best" from="320252634#9" to="181503326#0"/>
    <trip id="moto143" type="moto_motorcycle" depart="715.00" departLane="best" from="-150851814#1" to="366073460#3"/>
    <trip id="moto144" type="moto_motorcycle" depart="720.00" departLane="best" from="114389127#2" to="150896688#2"/>
    <trip id="moto145" type="moto_motorcycle" depart="725.00" departLane="best" from="235389908#0" to="364080663#1"/>
    <trip id="moto146" type="moto_motorcycle" depart="730.00" departLane="best" from="-531548528" to="53040718#8"/>
    <trip id="moto147" type="moto_motorcycle" depart="735.00" departLane="best" from="253489003" to="175553144"/>
    <trip id="moto148" type="moto_motorcycle" depart="740.00" departLane="best" from="-35948955#1" to="155860733#4"/>
    <trip id="moto149" type="moto_motorcycle" depart="745.00" departLane="best" from="-150857993#1" to="24620501#0"/>
    <trip id="moto150" type="moto_motorcycle" depart="750.00" departLane="best" from="108404033#2" to="366073473#1"/>
    <trip id="moto151" type="moto_motorcycle" depart="755.00" departLane="best" from="24620501#0" to="150556230#1"/>
    <trip id="moto152" type="moto_motorcycle" depart="760.00" departLane="best" from="39381687#5" to="1020110642"/>
    <trip id="moto154" type="moto_motorcycle" depart="770.00" departLane="best" from="371573876#2" to="320252634#9"/>
    <trip id="moto155" type="moto_motorcycle" depart="775.00" departLane="best" from="898480456" to="424501493#0"/>
    <trip id="moto156" type="moto_motorcycle" depart="780.00" departLane="best" from="150837582#3" to="364080660#2"/>
    <trip id="moto157" type="moto_motorcycle" depart="785.00" departLane="best" from="188462504" to="269017591#0"/>
    <trip id="moto158" type="moto_motorcycle" depart="790.00" departLane="best" from="269017588#3" to="24470195#0"/>
    <trip id="moto160" type="moto_motorcycle" depart="800.00" departLane="best" from="127607180#0" to="165720108#9"/>
    <trip id="moto161" type="moto_motorcycle" depart="805.00" departLane="best" from="-24608195#1" to="188462504"/>
    <trip id="moto162" type="moto_motorcycle" depart="810.00" departLane="best" from="739924927#0" to="172332636"/>
    <trip id="moto164" type="moto_motorcycle" depart="820.00" departLane="best" from="227205254#1.11" to="95170291#3"/>
    <trip id="moto166" type="moto_motorcycle" depart="830.00" departLane="best" from="-334457596" to="-24532297#0"/>
    <trip id="moto167" type="moto_motorcycle" depart="835.00" departLane="best" from="404599856" to="189032454"/>
    <trip id="moto168" type="moto_motorcycle" depart="840.00" departLane="best" from="-24532297#0" to="235389906"/>
    <trip id="moto169" type="moto_motorcycle" depart="845.00" departLane="best" from="-262140928" to="46967474#1"/>
    <trip id="moto170" type="moto_motorcycle" depart="850.00" departLane="best" from="-253536521#0" to="-245941530#2"/>
    <trip id="moto171" type="moto_motorcycle" depart="855.00" departLane="best" from="320252634#3" to="191003931#1"/>
    <trip id="moto172" type="moto_motorcycle" depart="860.00" departLane="best" from="360248203#2" to="433018233#1"/>
    <trip id="moto173" type="moto_motorcycle" depart="865.00" departLane="best" from="191640848#1" to="164152502#7"/>
    <trip id="moto174" type="moto_motorcycle" depart="870.00" departLane="best" from="-207636690#0" to="24685065"/>
    <trip id="moto175" type="moto_motorcycle" depart="875.00" departLane="best" from="149996793" to="E3_n2"/>
    <trip id="moto176" type="moto_motorcycle" depart="880.00" departLane="best" from="27870084#0" to="4082985#0"/>
    <trip id="moto177" type="moto_motorcycle" depart="885.00" departLane="best" from="187060055" to="-442789059"/>
    <trip id="moto178" type="moto_motorcycle" depart="890.00" departLane="best" from="150546874#1" to="187628749#1"/>
    <trip id="moto179" type="moto_motorcycle" depart="895.00" departLane="best" from="150857994#1" to="-27245673#10"/>
    <trip id="moto180" type="moto_motorcycle" depart="900.00" departLane="best" from="39649661" to="-216146979"/>
    <trip id="moto182" type="moto_motorcycle" depart="910.00" departLane="best" from="150554198#6" to="268931672#0"/>
    <trip id="moto183" type="moto_motorcycle" depart="915.00" departLane="best" from="280873251#0" to="14189055"/>
    <trip id="moto184" type="moto_motorcycle" depart="920.00" departLane="best" from="-209308037#4" to="-155860744"/>
    <trip id="moto186" type="moto_motorcycle" depart="930.00" departLane="best" from="175586471" to="1101639846#1"/>
    <trip id="moto187" type="moto_motorcycle" depart="935.00" departLane="best" from="269040916" to="204400292"/>
    <trip id="moto188" type="moto_motorcycle" depart="940.00" departLane="best" from="268931682#0" to="-150851814#5"/>
    <trip id="moto189" type="moto_motorcycle" depart="945.00" departLane="best" from="-190443683#2" to="42760135#3"/>
    <trip id="moto190" type="moto_motorcycle" depart="950.00" departLane="best" from="53175159#2" to="42760136"/>
    <trip id="moto191" type="moto_motorcycle" depart="955.00" departLane="best" from="240321445#9" to="240321445#4"/>
    <trip id="moto192" type="moto_motorcycle" depart="960.00" departLane="best" from="28745180#0" to="171935245#2"/>
    <trip id="moto193" type="moto_motorcycle" depart="965.00" departLane="best" from="53175069#3" to="-215925852#0"/>
    <trip id="moto194" type="moto_motorcycle" depart="970.00" departLane="best" from="150546877#0" to="150395806"/>
    <trip id="moto195" type="moto_motorcycle" depart="975.00" departLane="best" from="-28745182#1" to="215971171#0"/>
    <trip id="moto196" type="moto_motorcycle" depart="980.00" departLane="best" from="306032429" to="38141500"/>
    <trip id="moto198" type="moto_motorcycle" depart="990.00" departLane="best" from="25873469#8" to="-317890187"/>
    <trip id="moto199" type="moto_motorcycle" depart="995.00" departLane="best" from="33083418#3" to="339365824"/>
    <trip id="moto200" type="moto_motorcycle" depart="1000.00" departLane="best" from="185580084#1" to="532149775#0"/>
    <trip id="moto201" type="moto_motorcycle" depart="1005.00" departLane="best" from="23263249#3" to="253488977#0"/>
    <trip id="moto202" type="moto_motorcycle" depart="1010.00" departLane="best" from="251816561" to="431557289#1"/>
    <trip id="moto203" type="moto_motorcycle" depart="1015.00" departLane="best" from="127607225#3" to="107085664#1"/>
    <trip id="moto204" type="moto_motorcycle" depart="1020.00" departLane="best" from="-162754862#2" to="213560194"/>
    <trip id="moto205" type="moto_motorcycle" depart="1025.00" departLane="best" from="410592139" to="249599485"/>
    <trip id="moto206" type="moto_motorcycle" depart="1030.00" departLane="best" from="23055404#1" to="364080662#0"/>
    <trip id="moto207" type="moto_motorcycle" depart="1035.00" departLane="best" from="373426448#2" to="257675380#1"/>
    <trip id="moto208" type="moto_motorcycle" depart="1040.00" departLane="best" from="150547351#5" to="29350090"/>
    <trip id="moto209" type="moto_motorcycle" depart="1045.00" departLane="best" from="269040916" to="1101640525#0"/>
    <trip id="moto210" type="moto_motorcycle" depart="1050.00" departLane="best" from="502060953#1" to="4403852#3"/>
    <trip id="moto211" type="moto_motorcycle" depart="1055.00" departLane="best" from="150393270#5" to="24377458"/>
    <trip id="moto212" type="moto_motorcycle" depart="1060.00" departLane="best" from="163419465" to="24549608#1"/>
    <trip id="moto213" type="moto_motorcycle" depart="1065.00" departLane="best" from="630452844" to="147683979#2"/>
    <trip id="moto214" type="moto_motorcycle" depart="1070.00" departLane="best" from="150893564#2" to="364080662#0"/>
    <trip id="moto215" type="moto_motorcycle" depart="1075.00" departLane="best" from="150697174#1" to="150837582#2"/>
    <trip id="moto216" type="moto_motorcycle" depart="1080.00" departLane="best" from="-410592139" to="-24909020#1"/>
    <trip id="moto217" type="moto_motorcycle" depart="1085.00" departLane="best" from="-150554195#1" to="150546877#1"/>
    <trip id="moto218" type="moto_motorcycle" depart="1090.00" departLane="best" from="150893567" to="-28646387#0"/>
    <trip id="moto219" type="moto_motorcycle" depart="1095.00" departLane="best" from="396381365" to="358953091#1"/>
    <trip id="moto220" type="moto_motorcycle" depart="1100.00" departLane="best" from="373426447#2" to="-29504039#0"/>
    <trip id="moto221" type="moto_motorcycle" depart="1105.00" departLane="best" from="269017617#0" to="-53175159#0"/>
    <trip id="moto222" type="moto_motorcycle" depart="1110.00" departLane="best" from="320630989#0" to="187057793#0"/>
    <trip id="moto223" type="moto_motorcycle" depart="1115.00" departLane="best" from="366073475#7" to="-253488968"/>
    <trip id="moto225" type="moto_motorcycle" depart="1125.00" departLane="best" from="4403852#4" to="23055466#3"/>
    <trip id="moto226" type="moto_motorcycle" depart="1130.00" departLane="best" from="4082065#0" to="1101640531#1"/>
    <trip id="moto227" type="moto_motorcycle" depart="1135.00" departLane="best" from="500582851#0" to="-269017588#4"/>
    <trip id="moto228" type="moto_motorcycle" depart="1140.00" departLane="best" from="182489957#1" to="739924927#2"/>
    <trip id="moto230" type="moto_motorcycle" depart="1150.00" departLane="best" from="-24620501#1" to="285011811#0"/>
    <trip id="moto231" type="moto_motorcycle" depart="1155.00" departLane="best" from="185580084#0" to="-1101639846#1"/>
    <trip id="moto232" type="moto_motorcycle" depart="1160.00" departLane="best" from="39649667" to="229619678#0"/>
    <trip id="moto233" type="moto_motorcycle" depart="1165.00" departLane="best" from="127606907#1" to="-150857993#2"/>
    <trip id="moto234" type="moto_motorcycle" depart="1170.00" departLane="best" from="175580619#1" to="249599485"/>
    <trip id="moto235" type="moto_motorcycle" depart="1175.00" departLane="best" from="-531113646" to="171793097#1"/>
    <trip id="moto236" type="moto_motorcycle" depart="1180.00" departLane="best" from="94586280#1" to="-190443683#0.23"/>
    <trip id="moto237" type="moto_motorcycle" depart="1185.00" departLane="best" from="218303450" to="213560194"/>
    <trip id="moto238" type="moto_motorcycle" depart="1190.00" departLane="best" from="358953096" to="31648322#1"/>
    <trip id="moto239" type="moto_motorcycle" depart="1195.00" departLane="best" from="227205268#1" to="377853509#1"/>
    <trip id="moto240" type="moto_motorcycle" depart="1200.00" departLane="best" from="-306029065#5" to="360248187#0"/>
    <trip id="moto241" type="moto_motorcycle" depart="1205.00" departLane="best" from="253488944" to="376865405#3"/>
    <trip id="moto242" type="moto_motorcycle" depart="1210.00" departLane="best" from="215971176#4" to="E13_P7"/>
    <trip id="moto243" type="moto_motorcycle" depart="1215.00" departLane="best" from="227062821#1" to="-96851712#0"/>
    <trip id="moto244" type="moto_motorcycle" depart="1220.00" departLane="best" from="150661833#0" to="360248187#7"/>
    <trip id="moto245" type="moto_motorcycle" depart="1225.00" departLane="best" from="217382711" to="366073482#1"/>
    <trip id="moto246" type="moto_motorcycle" depart="1230.00" departLane="best" from="245941530#3" to="385970247#2"/>
    <trip id="moto247" type="moto_motorcycle" depart="1235.00" departLane="best" from="175558914#10" to="27245673#10"/>
    <trip id="moto248" type="moto_motorcycle" depart="1240.00" departLane="best" departSpeed="max" from="E8_y9" to="107085664#1"/>
    <trip id="moto249" type="moto_motorcycle" depart="1245.00" departLane="best" from="150770615#0" to="366073482#1"/>
    <trip id="moto250" type="moto_motorcycle" depart="1250.00" departLane="best" from="360248187#6" to="-150549242#1"/>
    <trip id="moto251" type="moto_motorcycle" depart="1255.00" departLane="best" from="-17977155#1" to="360248182#0"/>
    <trip id="moto252" type="moto_motorcycle" depart="1260.00" departLane="best" from="155860733#4" to="23148902#7"/>
    <trip id="moto253" type="moto_motorcycle" depart="1265.00" departLane="best" from="184227241#4" to="E4_vu3"/>
    <trip id="moto255" type="moto_motorcycle" depart="1275.00" departLane="best" from="5475849#1" to="253488999#1"/>
    <trip id="moto256" type="moto_motorcycle" depart="1280.00" departLane="best" from="EMk3" to="30158429#2"/>