<?xml version="1.0" encoding="UTF-8"?>

<!-- generated on 2023-03-06 16:03:58.686136 by randomTrips.py v1_14_1+0000-f654d7b963e
<configuration>
    <end value="3600"/>
    <fringe-factor value="2.0"/>
    <fringe-start-attributes value="departSpeed=&quot;max&quot;"/>
    <max-distance value="1200.0"/>
    <net-file value="osm.net.xml"/>
    <period value="5.0"/>
    <route-file value="osm.motorcycle.rou.xml"/>
    <trip-attributes value="departLane=&quot;best&quot;"/>
    <output-trip-file value="osm.motorcycle.trips.xml"/>
    <prefix value="moto"/>
    <validate value="True"/>
    <vclass value="motorcycle"/>
    <vehicle-class value="motorcycle"/>
</configuration>
-->

<!-- generated on 2023-03-06 16:03:58 by Eclipse SUMO duarouter Version 1.14.1
<configuration xmlns:xsi="http://www.w3.org/2001/XMLSchema-instance" xsi:noNamespaceSchemaLocation="http://sumo.dlr.de/xsd/duarouterConfiguration.xsd">

    <input>
        <net-file value="osm.net.xml"/>
        <route-files value="osm.motorcycle.trips.xml"/>
    </input>

    <output>
        <output-file value="osm.motorcycle.rou.xml"/>
        <alternatives-output value="NUL"/>
    </output>

    <time>
        <begin value="0"/>
        <end value="3600"/>
    </time>

    <report>
        <no-warnings value="true"/>
        <ignore-errors value="true"/>
        <no-step-log value="true"/>
    </report>

</configuration>
-->

<routes xmlns:xsi="http://www.w3.org/2001/XMLSchema-instance" xsi:noNamespaceSchemaLocation="http://sumo.dlr.de/xsd/routes_file.xsd">
    <vType id="moto_motorcycle" vClass="motorcycle"/>
    <vehicle id="moto0" type="moto_motorcycle" depart="0.00" departLane="best">
        <route edges="107085651#1 432348158 432348156 255225445#0 230602993 190438083#1 269040907#0 269040907#1 149899941 253488977#0 42760138 149904354 460396653 218778912 268931658 188466506 268931675#1 -364071765#0 -4248376"/>
    </vehicle>
    <vehicle id="moto1" type="moto_motorcycle" depart="5.00" departLane="best">
        <route edges="319999605#1 319999605#4 319999605#5 319999605#6 319999605#7 4084169 150663777 237278283 237278282#3 268931664#1 268931665 4084166 268931652 187060053#0 187060055 53175058 315426061 315426062 150000852 189773010#0 149996793 251158323 251158322#1 548514765 228126460#0 462537200#1 462537200#1.25 249375697#1 269040901#1"/>
    </vehicle>
    <vehicle id="moto2" type="moto_motorcycle" depart="10.00" departLane="best">
        <route edges="-150393267#4 -150393267#3 -150393267#2 150393267#2 150393267#3 150393267#4 150393267#5 150393267#6 150393267#7 150393267#8 150393267#9 150393267#10 121805106 150393270#14 121805107#0 121805107#1 121805107#2 32280972#5 32280972#0 32280972#1 121805100 E0_vu3 E1_vu3 -E8_vu3 E7_vu3 -360787852#3 -360787852#2 -360787852#0"/>
    </vehicle>
    <vehicle id="moto3" type="moto_motorcycle" depart="15.00" departLane="best">
        <route edges="371573875 371573874 -371574650 -121805098#2 -121805098#1 121805099 32280972#1 121805100 E0_vu3 E1_vu3 -E8_vu3 E7_vu3 -360787852#3 -360787852#2 -360787852#0 -5475488#1 190340312 216879571 674280493 102774826 102749569 4474685 85287424 187060058#0 29350090 320207734 27283179#0"/>
    </vehicle>
    <vehicle id="moto4" type="moto_motorcycle" depart="20.00" departLane="best">
        <route edges="-215925857#1 -216128742 -215971172#0 -33083165#1 -33083165#0 215971173#0 -442545005 -442545004#1 -205880175#2 -205880175#1 -205880175#0 205988835 254497023 205880172 10510838 -217382714"/>
    </vehicle>
    <vehicle id="moto5" type="moto_motorcycle" depart="25.00" departLane="best">
        <route edges="371573876#4 371573876#5 371573876#6 371573876#7 270655645#0 270655645#1 172330768 172332283 172332278#0 812970254#0 172336783#0 270655622 251816537 71256192 251816540 223859972 251816539 251816541 227205268#1 227205269 227205269.83 251816590 -285011811#1 251816548 251820257 531113640 897661486 257675380#0 257675380#1 584126367#0 584126367#1 584126367#2 409287503 424501493#0 531114769 -217493751 -218025840 -24685073 148357182#3 148357182#4 148357182#7 148357182#8 24685071 218303450 218303447 -219005867#1 -219005867#0 -216146979 30845552#0 30845552#1 30845552#2"/>
    </vehicle>
    <vehicle id="moto6" type="moto_motorcycle" depart="30.00" departLane="best">
        <route edges="282331231#0 282331231#1 781345962 300035524 150857432#2 93785423 253488957#0 253488944 94586305 500261498 94586298 500261497 150837582#1 150837582#2 150837582#3 185579896#0 185579896#1 53175059#1 -33083988#1 -33083988#0 -151785743#1 -151785743#0 -150856067"/>
    </vehicle>
    <vehicle id="moto7" type="moto_motorcycle" depart="35.00" departLane="best">
        <route edges="-206972903 428157062 10510838 -217382714 -217382713#3 -217382713#2 -217382713#1 -520824524#3 -520824524#2 -520824524#1"/>
    </vehicle>
    <vehicle id="moto8" type="moto_motorcycle" depart="40.00" departLane="best">
        <route edges="253488994 35951977#0 35951977#1 127608718#0 127608718#1 251816580 189765373 189765377 53175063#0 150851811#2 898486015 898486014#0 898486014#1 190443688#0 898480456 898465326#0 190443836 898484255 898484254 898459770 189769943#0 150770614#1 33083535#0 150851814#0"/>
    </vehicle>
    <vehicle id="moto9" type="moto_motorcycle" depart="45.00" departLane="best">
        <route edges="1055823708#2 1055823708#3 1055823708#4 4403852#0 23263249#2 23263249#3 23263249#5 626581541#0 626581541#1 626581542"/>
    </vehicle>
    <vehicle id="moto10" type="moto_motorcycle" depart="50.00" departLane="best">
        <route edges="-27870084#0 -638123367#2 -638123367#1 -638123367#0 -53573984#3 -53573984#2 4400844#0 270684576#0 270684576#1 270684579 22763251#0 22763251#1 22763251#2 151789087#1"/>
    </vehicle>
    <vehicle id="moto11" type="moto_motorcycle" depart="55.00" departLane="best" departSpeed="max">
        <route edges="E11_P7 190348536#0 5475849#1 182826554 27247873 27247875 25890468 25890467 127608716 192428988#0 192428988#2 4082985#0 253488995 189765126#0 189765126#1 189765125#0 189765125#1 189765125#2 253488997#1 189764998 189764999#0 189764716#0 189764716#1 50283048#0 50283048#1 95170292#2 190462985 253488968 253488973#1 253488970#0 253488970#1 4400845#0 4400845#1 4400845#3 253489009#0"/>
    </vehicle>
    <vehicle id="moto13" type="moto_motorcycle" depart="65.00" departLane="best">
        <route edges="-432348155 -161847018#2 548514765 228126460#0 316778911#1 287186149#1 251161865#1 781419324 404599852 404599853 251157594 404477284#1 43578399#0 43578399#1 150556234#1 165823636 227062816 165828294#0 581663849 190431168#1 190431168#2 190431168#3 227062818#1 360248187#3 360248187#4 360248187#5 360248187#6 360248187#7 28143931#0 28143931#1 227062814 227062815#0 227062815#1 19354458#0 19354458#1 19354458#2 -150546875"/>
    </vehicle>
    <vehicle id="moto14" type="moto_motorcycle" depart="70.00" departLane="best">
        <route edges="148357183#0 148357183#1 218025853#0 218025853#1 218025853#2 373426448#1 373426448#2 24685084#0 24685085 280873251#0 206777521#1 23566451#0 23566451#1 335986848#2 230991290#0 251158322#1 548514765 228126460#0 316778911#1 287186149#1 251161865#1 781419324 404599852 7980452#1 7980452#2 107085650 107085647#0 107085647#1 107085647#2"/>
    </vehicle>
    <vehicle id="moto15" type="moto_motorcycle" depart="75.00" departLane="best">
        <route edges="-371573876#0 371573876#0 371573876#1 371573876#2 371573876#3 371573876#4 371573876#5 371573876#6 371573876#7 270655645#0 270655645#1 172330768 172332283 172332278#0 812970254#0 172336783#0 270655622 251816537 71256192 251816540 223859972 251816539 251816541 227205268#1 227205269 227205269.83 251816590 -285011811#1 251816548 251820257 531113640 897661486 257675380#0 257675380#1 584126367#0 584126367#1 584126367#2 409287503 424501493#0 257675381 388280855#0 388280855#2 388280855#3 388280855#4 373426448#1 373426448#2 24685084#0 694345941#2"/>
    </vehicle>
    <vehicle id="moto16" type="moto_motorcycle" depart="80.00" departLane="best">
        <route edges="531113646 531113643 251816543 229621539#0 227205254#1 227205254#1.11 251816547 597172848 121541411#0 121541411#1 155860744 155860740 155860733#3 171935245#0 171935245#1 171935245#2 251816561 251816565#0 5475849#1 182826554 27247873 27247875 25890468 25890467 199383409#2 251816560#0 35951977#1 127608718#0 127608718#1 251816580 189765373"/>
    </vehicle>
    <vehicle id="moto17" type="moto_motorcycle" depart="85.00" departLane="best">
        <route edges="E7_y 377853509#0 377853509#1 377853508 150857433 150859889#0 150859889#1 -150859889#1 -150859889#0 -150857433 -377853508 -377853509#1 -377853509#0 189765377 175588575#0 53175062#0 127607593 192428989 7656757 27247877 251816561 251816565#0 25586776 251816566#0 251816566#1 251816566#2 251816566#3 251816566#4 598266300#0 380637201 23148901#0 23148901#1 23148901#2 466081172 23148902#6 -215925852#1 -215925852#0 39649667 215925855"/>
    </vehicle>
    <vehicle id="moto18" type="moto_motorcycle" depart="90.00" departLane="best">
        <route edges="364080661 -319999605#4 -319999605#1 -319999605#0 8067182#1 8067182#2 389119564#1 183656812 269017591#0 269017591#1 -315426060#3 -315426060#2 -315426060#0 -253540569#1 -253540569#0 -999857917#0 -174379435 174379435"/>
    </vehicle>
    <vehicle id="moto19" type="moto_motorcycle" depart="95.00" departLane="best">
        <route edges="93785423 253488957#0 253488944 93785434 112562464 46967473 502060953#0 4248376"/>
    </vehicle>
    <vehicle id="moto20" type="moto_motorcycle" depart="100.00" departLane="best">
        <route edges="270655645#0 270655645#1 -270655645#1 -270655645#0 -371573876#7 -371573876#6 -371573876#5 -371573876#4 -371573876#3 -371573876#2 -371573876#1 -371573876#0 -371574650 -121805098#2 -121805098#1 121805099 32280972#1 121805100 E0_vu3 E1_vu3 -E8_vu3 E7_vu3 -360787852#3 -360787852#2 -360787852#0 -5475488#1 190340312 216879571 674280493 150546872 181503326#0 181503326#1 255392314 4220905 255392313#0 387015286 409702806#1 438279356 -442789059 -19354456 227062821#0 28143931#1 19354464#0 19354464#1 19354464#2 227062813#0 227062813#1"/>
    </vehicle>
    <vehicle id="moto21" type="moto_motorcycle" depart="105.00" departLane="best">
        <route edges="187628738#0 270905178#0 29350090 320207734 320202776 150546874#1 402016791 320210276 320210275 56185655#0 56185655#1 189776524 56454445 187057791#0 187057791#1 187057791#2 23137790#2 150543795 56186952 922053740 35134167#0 35134167#2 35134167#3 276412885 276412658 189877634#0 96747828#0 -96851712#0 96851712#0 7980446#1 7980446#2 7980446#3 7980446#4"/>
    </vehicle>
    <vehicle id="moto22" type="moto_motorcycle" depart="110.00" departLane="best">
        <route edges="4404113#5 178376520 231285503#1 231285503#2 231285503#3 1055823708#3 1055823708#4 1055823709#0 1055823709#1"/>
    </vehicle>
    <vehicle id="moto23" type="moto_motorcycle" depart="115.00" departLane="best">
        <route edges="208424711#2 24534083#0 24534083#1 24534083#2 24534083#3 404190176 8067184#0 53175165 53175164#0 53175164#2 188462504 208426931 319999605#1 319999605#4 319999605#5 319999605#6 319999605#7 4084169 150663777 -319999605#7 -319999605#6"/>
    </vehicle>
    <vehicle id="moto24" type="moto_motorcycle" depart="120.00" departLane="best">
        <route edges="35014373#1 35014373#3 -35014373#3 -35014373#1 -35014373#0 -739924926 -31648190#1 -31648190#0 -402016793 -31648189 128081143 320235813#0 320239492#1 -104363155#1 24377359 56185654 56185655#0 56185655#1 189776524 216879574#1 216879574#2 216879574#3 216879574#4 216879574#5 216879574#6 8601802#1 23137781 227062817"/>
    </vehicle>
    <vehicle id="moto25" type="moto_motorcycle" depart="125.00" departLane="best">
        <route edges="-210362483#1 -210362483#0 -210362484 -210441951#0 -206972905 -217382714 150741844 162754862#0 162754862#2 229619684 205880175#0 205880175#1 205880175#2 442545004#1 442545005 23148902#0 23148902#3 -215925855 -215925857#1 -216128742 203502996"/>
    </vehicle>
    <vehicle id="moto27" type="moto_motorcycle" depart="135.00" departLane="best">
        <route edges="1038224266#0 1038224266#1 255389622#0 255389622#1 255389622#2 255389622#3 255389622#4 255389622#6 255389622#7 255389622#8 23263249#0 23263249#1 4403852#1"/>
    </vehicle>
    <vehicle id="moto28" type="moto_motorcycle" depart="140.00" departLane="best">
        <route edges="E3_vu3 56186954 56186952 922053740 35134167#0 35134167#2 35134167#3 276412885 276412658 189877634#0 404477284#1 43578399#0 43578399#1 1064398602#0 1064398602#1 1055826509 387015255 4220893#0 255393423"/>
    </vehicle>
    <vehicle id="moto29" type="moto_motorcycle" depart="145.00" departLane="best">
        <route edges="182489958 930192517#0 930192517#1 190340311 182489957#0 182489957#1 182489957#2 930192518 -371306931 -999862406 -190340310#0 376849860#1 -114928357 114928360#1 376846888 402016776 40584784 187060049#0 187060049#1 561882212 115738329#0 29350090 320207734 320202776 150546874#1 402016791 320210276 320210275 56185655#0 56185655#1 189776524 216879574#1 216879574#2 216879574#3 216879574#4 216879574#5"/>
    </vehicle>
    <vehicle id="moto30" type="moto_motorcycle" depart="150.00" departLane="best">
        <route edges="-502060955#1 -502060955#0 253488948 253488950#0 93785434 112562464 46967473 502060953#0 502060953#1 420551407#0 182065983#1 218778912 268931658 42760136 268931654#1 147683979#0 147683979#2 269001617 269001621#3 269001620#0 269001619#0 692648169#0 123555933#1 123555933#2 269001612#2 269001612#3 269001612#4 269001612#5"/>
    </vehicle>
    <vehicle id="moto31" type="moto_motorcycle" depart="155.00" departLane="best">
        <route edges="603995680 257675380#0 257675380#1 584126367#0 584126367#1 584126367#2 409287503 424501493#0 257675381 388280855#0 388280855#2 388280855#3 388280855#4 373426448#1 373426448#2 24685084#0 24685085 280873251#0 206777521#1 23566451#0 23566451#1 335986848#2 230991290#0 269040901#1 189772874#0 190451914#1 251106575 251106198#0 238870176#0"/>
    </vehicle>
    <vehicle id="moto32" type="moto_motorcycle" depart="160.00" departLane="best">
        <route edges="371573876#5 371573876#6 371573876#7 270655645#0 270655645#1 -270655645#1 -270655645#0 -371573876#7 -371573876#6 -371573876#5 -371573876#4 -371573876#3 -371573876#2 -371573876#1 -371573876#0 -371574650 -121805098#2 -121805098#1 121805099 32280972#1 121805100 E0_vu3 E1_vu3 -E8_vu3 E7_vu3 -360787852#3 -360787852#2 -360787852#0 -5475488#1 190340312 216879571 674280493 102774826 102749569 359947001 187057793#0 190340309 31648322#0 31648322#1 31648322#2 31648189 320240823 31648190#0 31648190#1 739924926 739924925 35014373#1 35014373#3 -35014373#3 -35014373#1"/>
    </vehicle>
    <vehicle id="moto33" type="moto_motorcycle" depart="165.00" departLane="best">
        <route edges="4248376 364071765#0 -268931675#1 102486913#0 102486913#1 102486913#3 237278282#3 268931664#1 268931665 4084166 4432606#1 4432606#2 4432606#3 4432606#4 4432606#5 4432606#6 4432606#7 4432606#8 7980450#1 -7980450#1"/>
    </vehicle>
    <vehicle id="moto34" type="moto_motorcycle" depart="170.00" departLane="best">
        <route edges="174379434#1 174379434#2 174379434#3 174379434#4 174379435 999857917#0 999857917#1 253540569#1 315426060#0 315426060#2 315426060#3 779043553#0 779043553#1 779043553#2 779043553#3 188462687#0 8067185#1 8067185#3 8067185#4 8067185#5 53175161 185576374#0 53175163#1 253488943 253488947 253488948 253488950#0 108404031#0 108404031#1"/>
    </vehicle>
    <vehicle id="moto35" type="moto_motorcycle" depart="175.00" departLane="best">
        <route edges="184156814#2 150543795 56186952 922053740 35134167#0 35134167#2 35134167#3 276412885 276412658 189876499 160173625 360785921#0 360785921#1 5111851 360785920#0 190340308 E2_vu3 E3_vu3 E4_vu3 399741671 190340312 216879571 674280493 102774826 102749569 4474685 85287424 187060058#0 187060058#3 187060057#0 42760132"/>
    </vehicle>
    <vehicle id="moto36" type="moto_motorcycle" depart="180.00" departLane="best">
        <route edges="EMk2 EMk1 E22_y8 E23_y8 EMk3 EMk4 E19_y8 E21_y8 380637201 23148901#0 23148901#1 23148901#2 466081172 23148902#6 -215925852#1 -215925852#0 -215925850#1 -215925850#0 39649668#0 39649668#1 39649668#2 39649668#3"/>
    </vehicle>
    <vehicle id="moto37" type="moto_motorcycle" depart="185.00" departLane="best">
        <route edges="922053740 35134167#0 35134167#2 35134167#3 276412885 276412658 189876499 160173625 360785921#0 360785921#1 5111851 360785920#0 190340308 E2_vu3 E3_vu3 E4_vu3 399741671 190340312 216879574#1 -216879574#1 56454445 187057791#0 187057791#1 187057791#2 5475488#1"/>
    </vehicle>
    <vehicle id="moto38" type="moto_motorcycle" depart="190.00" departLane="best">
        <route edges="199831388 199831388.17 229619681#1 251816552 227205263 251816590 155860727#0 155860727#1 155860727#2 155860741#1 155860733#1 155860733#2 155860733#3 171935245#0 171935245#1 171935245#2 251816561 251816565#0 5475849#1 182826554 27247873 27247875 25890468 25890467 199383409#2 251816560#0 35951977#1 127608718#0 127608718#1 251816580 189765373 189765377 53175063#0 150851811#2 898486015 898486014#0 898486014#1 190443688#0 898480456 898465326#0 385970247#1 385970247#2 967938217 -941558922 -238870175#1 238870175#1 941558922 -967938217 -385970247#2"/>
    </vehicle>
    <vehicle id="moto39" type="moto_motorcycle" depart="195.00" departLane="best">
        <route edges="164152502#18.7 164152502#18.36 164152502#18.67 164152502#18.110 164152502#19 164152502#20 203461111 203461112#1 230602993 190438083#1 269040907#0 269040907#1 149899941 253488977#0 42760138 149904354 460396653 218778912 268931658 42760136 268931654#1 147683979#0 147683979#2 269001617 171453050 -171453050"/>
    </vehicle>
    <vehicle id="moto40" type="moto_motorcycle" depart="200.00" departLane="best">
        <route edges="1038224266#1 255389622#0 255389622#1 255389622#2 255389622#3 255389622#4 255389622#6 255389622#7 255389622#8 255389621#0 255389621#1 255389621#2 255389621#3 165849626 4404113#0 4404113#1 4404113#2 4404113#3 4404113#5 268931687 376865405#3 376865390#1 268931678 268931683#1 268931683#1.46 204207294 315426064 150549933#0 164086589 164086593 45085542#0 268931673#1 270655631 270655638 711528929#0 360248211#0 360248211#1"/>
    </vehicle>
    <vehicle id="moto41" type="moto_motorcycle" depart="205.00" departLane="best">
        <route edges="8067185#4 8067185#5 53175161 185576374#0 53175163#1 253488943 253488947 253488948 253488950#0 93785434 112562464 46967473 502060953#0 502060953#1 420551407#0 182065983#1 53175058 315426061 315426062 150000852 189773010#0 149996793 190451914#1 251106575 251103977#0 251103977#0.17 -127606907#3 -127606907#2 -127606907#1 -127606907#0 -189032455 189032455 127606907#0 127606907#1 127606907#2 127606907#3 E3_y"/>
    </vehicle>
    <vehicle id="moto42" type="moto_motorcycle" depart="210.00" departLane="best">
        <route edges="-270684568#9 -270684568#8 -270684568#7 -270684568#6 -270684568#5 -270684568#4 -270684568#3 -270684568#2 -270684568#0 270684568#0 270684568#2 270684568#3 270684568#4 270684568#5 270684568#6 270684568#7 270684568#8 270684568#9 130540617 175553144 225805140#1 175552322 175548703 388155249#1 150851810 377851563 150851818 270666293#0 270666293#1 -150859889#1 -150859889#0 -150857433 -377853508 -377853509#1 -377853509#0 189765377 53175063#0 175580619#1 -240348395#7 -240348395#6 -240348395#5 -240348395#4 -240348395#3 -240348395#2 -240348395#1 -240348395#0 -366073485#1 -190443683#2 -190443683#1 -190443683#0 -190443683#0.23 190443685 189768761 189768759 127607180#0"/>
    </vehicle>
    <vehicle id="moto43" type="moto_motorcycle" depart="215.00" departLane="best">
        <route edges="922053733#1 -922053733#1 -922053733#0 269040918 251106111#0 189032454 269040914 898416659 269040916 190446522 190446521#2 190443686 190443683#0 190443683#1 190443683#2 366073485#1 240348395#0 240348395#1 240348395#2 240348395#3 240348395#4"/>
    </vehicle>
    <vehicle id="moto44" type="moto_motorcycle" depart="220.00" departLane="best">
        <route edges="227062820#0 150554193#0 150554193#1 150554193#2 150554193#3 360248191 360248194 360248197#0 360248197#1 360248209#1 268931670 268931671 268931671.29 4235244 999614640 164095588#2 305325048#0 305325048#0.14 659292417#0 659292417#1 4404114#0 4404114#1 4404114#3 4404114#4 231285503#0 231285503#1 231285503#2 231285503#3 1055823708#3 4432605 320630988#0 320630988#1 320630988#2"/>
    </vehicle>
    <vehicle id="moto45" type="moto_motorcycle" depart="225.00" departLane="best">
        <route edges="-206972905 206972874#1 214253509#1 -218025840 -24685073 148357182#3 148357183#0 148357183#1 218025853#0 218025853#1 218025853#2 373426448#1 373426448#2 24685084#0 24685085 280873251#0 206777521#1 23566451#0 23566451#1 335986848#2 230991290#0 269040901#1 189772874#0 190451914#1 251106575 251106198#0 269040918 251106111#0 189032454 269040914 898416659 150770614#1 -332237966"/>
    </vehicle>
    <vehicle id="moto46" type="moto_motorcycle" depart="230.00" departLane="best">
        <route edges="-4492384#1 -4492384#0 53175159#0 53175159#1 53175159#2 26923739#0 26923739#1 97142262 724854350#0 724854350#1 185579896#0 185579896#1 -185580084#1 -185580084#0 -149352823#1 -149352823#0 -253488999#3 -253488999#2 -253488999#1 -253488999#0 253489000#1 249461334#1 249461334#4 253488996 253488994 35951977#0 35951977#1 127608718#0 127608718#1 251816580 189765373 189765377 53175063#0 175580619#1 -240348395#7 -240348395#6 -240348395#5"/>
    </vehicle>
    <vehicle id="moto47" type="moto_motorcycle" depart="235.00" departLane="best">
        <route edges="24534243#0 24534243#1 262140928 28297618#0 28297618#1 502060953#0 502060953#1 420551407#0 182065983#1 53175058 315426061 315426062 150000852 189773010#0 149996793 251158323"/>
    </vehicle>
    <vehicle id="moto49" type="moto_motorcycle" depart="245.00" departLane="best">
        <route edges="218025853#2 373426448#1 373426448#2 24685084#0 694345941#2 778989042#0 778989042#1 373426447#0 373426447#2 694345940 489072363 434327503 257676226#0 257676226#1 257676226#2 339365824 440834670#0 440834670#1 440834669#1 440834669#2 309717596#1 309717596#2 309717596#3 531113643 251816543 229621539#0 227205254#1 227205254#1.11 251816547 597172848"/>
    </vehicle>
    <vehicle id="moto50" type="moto_motorcycle" depart="250.00" departLane="best">
        <route edges="-190462985 190462984#0 53573995#2 189764669#0 249461334#1 249461334#4 253488996 253488994 253488995 189765126#0"/>
    </vehicle>
    <vehicle id="moto51" type="moto_motorcycle" depart="255.00" departLane="best">
        <route edges="1038224266#1 255389622#0 255389622#1 255389622#2 255389622#3 255389622#4 255389622#6 255389622#7 255389622#8 23263249#0 23263249#1 4403852#1 4403852#2 4403852#3 4403852#4 628505595#0 187060055 53175058 315426061 315426062 150000852 189773010#0 149996793 251158323 251158322#1 548514765 228126460#0 316778911#1 287186149#1 251161865#1 781419324 404599852 404599853 251157594 404477284#1 43578399#0 43578399#1 150556234#1 165823636 227062816 165828294#0 581663849"/>
    </vehicle>
    <vehicle id="moto52" type="moto_motorcycle" depart="260.00" departLane="best">
        <route edges="440834670#1 440834669#1"/>
    </vehicle>
    <vehicle id="moto53" type="moto_motorcycle" depart="265.00" departLane="best">
        <route edges="-219005868#0 219005868#0 219005868#1 219005869 -718155368#1 -694345941#2 24685085 280873251#0 206777521#1 23566451#0 23566451#1 335986848#2 230991290#0 251158322#1 548514765 228126460#0 23055403#1 23055403#2"/>
    </vehicle>
    <vehicle id="moto54" type="moto_motorcycle" depart="270.00" departLane="best">
        <route edges="-1064398602#0 150556234#1 165823636 227062816 165828294#0 581663849 360248203#1 360248203#2 150554193#4 358953091#0 358953091#1"/>
    </vehicle>
    <vehicle id="moto55" type="moto_motorcycle" depart="275.00" departLane="best">
        <route edges="320235813#0 320239492#1 -104363155#1 24377361 320236986 190340309 320252264 265910769 320252634#0 320252634#1 320252634#2 320252634#3 320252634#5 320252634#7 320252634#9 320252634#10 320252634#11 320252634#12 402016777#1 150549242#0 150549242#1 190340310#0 190340310#1 371306931 182489958 930192517#0 930192517#1 -182489863 -229917857#1 229917857#1"/>
    </vehicle>
    <vehicle id="moto56" type="moto_motorcycle" depart="280.00" departLane="best">
        <route edges="500261497 53175163#1 253488943 253488947 253488948 253488950#0 93785434 112562464 46967473 502060953#0 502060953#1 420551407#0 182065983#1 53175058 315426061 315426062 150000852 189773010#0 149996793 251158323 251158322#1 548514765 228126460#0 316778911#1 287186149#1 251161865#1 781419324 404599852 404599853 251157594 548514764#2 548514763#0 189876499 160173625 360785921#0 360785921#1 5111851 360785920#0 190340308 E2_vu3 E3_vu3 E4_vu3 399741671 471554672 184227241#0 184227241#1 184227241#2 184227241#4 292947985 184227242 25586697 812970254#0 172336783#0 270655622 251816537 71256192 251816540 223859972 251816539 251816541 227205268#1 227205269 227205269.83"/>
    </vehicle>
    <vehicle id="moto57" type="moto_motorcycle" depart="285.00" departLane="best">
        <route edges="-266188220#0 163419466#1 163419466#3 163419466#4 163419466#7 185352101 208426931 319999605#1 4432614#0 4432614#1 4432614#2 4432614#3 4432614#4 4432614#5 24534243#0 24534243#1 -24534243#1"/>
    </vehicle>
    <vehicle id="moto58" type="moto_motorcycle" depart="290.00" departLane="best">
        <route edges="360248187#3 360248187#4 360248187#5 360248187#6 360248187#7 28143931#0 28143931#1 19354464#0 19354464#1 19354464#2 227062813#0 227062813#1 227062813#2 227062813#3 258979261 255391114#0 475679571#0 475679571#3 402016820#0 187060058#0 187060058#3 187060057#0 42760132 85270645 320185351 320185500#0 320185500#1 270655640 270655641 189899508 360065008 268931672#0 268931670 268931671 268931671.29 4235244 999614640 164095588#2 305325048#0 305325048#0.14 305325046 305325049#0 305325049#1 305325049#2 236994807 236994808 252024823#0 252024823#2 268931656 236995001 268931659#0 4084166 4432606#1 4432606#2"/>
    </vehicle>
    <vehicle id="moto59" type="moto_motorcycle" depart="295.00" departLane="best">
        <route edges="165720108#0.94 164152502#18.67 164152502#18.110 164152502#19 164152502#20 203461111 203461112#1 149996793 251158323 251158322#1 548514765 228126460#0 316778911#1 287186149#1 251161865#1 781419324 404599852 404599853 251157594 548514764#2 548514763#0 189876499 160173625 360785921#0 360785921#1 5111851 360785920#0 190340308 E2_vu3 E3_vu3 E4_vu3 399741671 471554672 184227241#0 184227241#1 184227241#2 184227241#4 292947985 184227242 25586697 812970254#0 172336783#0 270655622 251816537"/>
    </vehicle>
    <vehicle id="moto60" type="moto_motorcycle" depart="300.00" departLane="best">
        <route edges="150393270#14 121805107#0 121805107#1 121805107#2 32280972#5 32280972#0 32280972#1 121805100 E0_vu3 E1_vu3 -E8_vu3 E7_vu3 -360787852#3 -360787852#2 -360787852#0 -5475488#1 23137790#2 150543795 56186952 922053740 35134167#0 35134167#2 35134167#3 276412885 276412658 189876499 160173625 360785921#0 360785921#1 5111851 360785920#0 190340308 E2_vu3 E3_vu3 56186954"/>
    </vehicle>
    <vehicle id="moto61" type="moto_motorcycle" depart="305.00" departLane="best">
        <route edges="366073483#1 24573665 -366073449 -24549476#1 35951977#0 35951977#1 127608718#0 127608718#1 251816580 189765373 189765377 175588575#0 53175062#0 127607593 192428989 7656757 27247877 251816561 251816565#0 5475849#1 155860730#1 155860730#2 155860733#5 155860733#0 155860733#1 155860733#2 155860733#3 171935245#0 -28745182#1 -28745182#0 -28745180#1 -28745180#0 429104325#1"/>
    </vehicle>
    <vehicle id="moto62" type="moto_motorcycle" depart="310.00" departLane="best">
        <route edges="-39649666 -216128742 -215971172#0 -33083165#1 -33083165#0 -205759810#2 -205759810#1 -205759810#0 37825125#6"/>
    </vehicle>
    <vehicle id="moto63" type="moto_motorcycle" depart="315.00" departLane="best">
        <route edges="366073452#1 366073465#1 366073464#1 240348395#5 240348395#6 240348395#7 500527046#1 175580620#0 53175062#0 127607593 192428989 7656757 27247877 251816561 251816565#0 25586776 251816566#0 251816566#1 251816566#2 251816566#3 251816566#4 598266300#0 380637201 23148901#0 23148901#1 23148901#2 466081172 466082124 466081173#0 466081173#1 -442545005"/>
    </vehicle>
    <vehicle id="moto64" type="moto_motorcycle" depart="320.00" departLane="best">
        <route edges="-149951202#7 -149951202#6 -149951202#5 -149951202#4 -149951202#3 -149951202#2 -149951202#1 -149951202#0 -35014371#5 -35014371#4 -35014371#3 -35014371#0 739924927#0 739924927#2 -240321454#2 -240321454#1 -240321454#0 -112796201#4 -112796201#3 -112796201#2 -112796201#1 -112796201#0 -356166740#6 -356166740#5"/>
    </vehicle>
    <vehicle id="moto65" type="moto_motorcycle" depart="325.00" departLane="best">
        <route edges="898484254 898459770 189769943#0 269040917#0 127607225#2 127607225#3 23567306#1 269040899 190451409 269040904 230602993 190438083#1 269040907#0 269040907#1 204400292 251109201 187060050#2 781345962 300035524 150857432#2 93785423 253488957#0 253488944 108404031#0 108404031#1 108404031#2"/>
    </vehicle>
    <vehicle id="moto66" type="moto_motorcycle" depart="330.00" departLane="best">
        <route edges="253536521#0 253536521#1 -253536521#1 -253536521#0 -192398367#0 43703049 898486014#1 190443688#0 898480456 898465326#0 190443836 898484255 898484254 898459770 189769943#0 269040917#0 127607225#2 154656276#2 24922594#0 948937425#2 948937423 165720115#4 165720108#0 165720108#0.30 165720108#0.94 164152502#18.67"/>
    </vehicle>
    <vehicle id="moto67" type="moto_motorcycle" depart="335.00" departLane="best">