<?xml version="1.0" encoding="UTF-8"?>

<!-- generated on 2023-03-06 16:03:30.946305 by randomTrips.py v1_14_1+0000-f654d7b963e
<configuration>
    <end value="3600"/>
    <max-distance value="2000.0"/>
    <net-file value="osm.net.xml"/>
    <pedestrians value="True"/>
    <period value="6.0"/>
    <route-file value="osm.pedestrian.rou.xml"/>
    <output-trip-file value="osm.pedestrian.trips.xml"/>
    <prefix value="ped"/>
    <validate value="True"/>
    <vehicle-class value="pedestrian"/>
</configuration>
-->

<!-- generated on 2023-03-06 16:03:27 by Eclipse SUMO duarouter Version 1.14.1
<configuration xmlns:xsi="http://www.w3.org/2001/XMLSchema-instance" xsi:noNamespaceSchemaLocation="http://sumo.dlr.de/xsd/duarouterConfiguration.xsd">

    <input>
        <net-file value="osm.net.xml"/>
        <route-files value="osm.pedestrian.trips.xml"/>
    </input>

    <output>
        <output-file value="osm.pedestrian.trips.xml.tmp"/>
        <alternatives-output value="NUL"/>
        <write-trips value="true"/>
    </output>

    <time>
        <begin value="0"/>
        <end value="3600"/>
    </time>

    <report>
        <no-warnings value="true"/>
        <ignore-errors value="true"/>
        <no-step-log value="true"/>
    </report>

</configuration>
-->

<routes xmlns:xsi="http://www.w3.org/2001/XMLSchema-instance" xsi:noNamespaceSchemaLocation="http://sumo.dlr.de/xsd/routes_file.xsd">
    <vType id="ped_pedestrian" vClass="pedestrian"/>
    <person id="ped0" type="ped_pedestrian" depart="0.00">
        <personTrip from="268931658" to="-139692115#5" walkFactor="0.75"/>
    </person>
    <person id="ped1" type="ped_pedestrian" depart="6.00">
        <personTrip from="349836788" to="279980676" walkFactor="0.75"/>
    </person>
    <person id="ped2" type="ped_pedestrian" depart="12.00">
        <personTrip from="53175159#2" to="-216146981#2" walkFactor="0.75"/>
    </person>
    <person id="ped3" type="ped_pedestrian" depart="18.00">
        <personTrip from="165069584" to="-150549253#4" walkFactor="0.75"/>
    </person>
    <person id="ped4" type="ped_pedestrian" depart="24.00">
        <personTrip from="-420551633#1" to="208426933#0" walkFactor="0.75"/>
    </person>
    <person id="ped5" type="ped_pedestrian" depart="30.00">
        <personTrip from="-149942614#1" to="-374615109" walkFactor="0.75"/>
    </person>
    <person id="ped6" type="ped_pedestrian" depart="36.00">
        <personTrip from="27244032" to="228002788" walkFactor="0.75"/>
    </person>
    <person id="ped7" type="ped_pedestrian" depart="42.00">
        <personTrip from="-420551649" to="24608228" walkFactor="0.75"/>
    </person>
    <person id="ped8" type="ped_pedestrian" depart="48.00">
        <personTrip from="401214865" to="-105605386" walkFactor="0.75"/>
    </person>
    <person id="ped9" type="ped_pedestrian" depart="54.00">
        <personTrip from="397714305#0" to="300056810" walkFactor="0.75"/>
    </person>
    <person id="ped10" type="ped_pedestrian" depart="60.00">
        <personTrip from="122000766#0" to="-28143932" walkFactor="0.75"/>
    </person>
    <person id="ped11" type="ped_pedestrian" depart="66.00">
        <personTrip from="854917825" to="119894682" walkFactor="0.75"/>
    </person>
    <person id="ped12" type="ped_pedestrian" depart="72.00">
        <personTrip from="40103022" to="336500791" walkFactor="0.75"/>
    </person>
    <person id="ped13" type="ped_pedestrian" depart="78.00">
        <personTrip from="227062816" to="903554045" walkFactor="0.75"/>
    </person>
    <person id="ped14" type="ped_pedestrian" depart="84.00">
        <personTrip from="150694609" to="23137793#4" walkFactor="0.75"/>
    </person>
    <person id="ped15" type="ped_pedestrian" depart="90.00">
        <personTrip from="42465480" to="254498204" walkFactor="0.75"/>
    </person>
    <person id="ped17" type="ped_pedestrian" depart="102.00">
        <personTrip from="-210582468#7" to="-44828412#5" walkFactor="0.75"/>
    </person>
    <person id="ped18" type="ped_pedestrian" depart="108.00">
        <personTrip from="-232947463#1" to="-86202842" walkFactor="0.75"/>
    </person>
    <person id="ped19" type="ped_pedestrian" depart="114.00">
        <personTrip from="267411754#4" to="143384153" walkFactor="0.75"/>
    </person>
    <person id="ped20" type="ped_pedestrian" depart="120.00">
        <personTrip from="27134173" to="253539339#3" walkFactor="0.75"/>
    </person>
    <person id="ped21" type="ped_pedestrian" depart="126.00">
        <personTrip from="-319999605#4" to="335980510#2" walkFactor="0.75"/>
    </person>
    <person id="ped22" type="ped_pedestrian" depart="132.00">
        <personTrip from="-300068767#5" to="150694611#7" walkFactor="0.75"/>
    </person>
    <person id="ped23" type="ped_pedestrian" depart="138.00">
        <personTrip from="97301289#1" to="268931671" walkFactor="0.75"/>
    </person>
    <person id="ped24" type="ped_pedestrian" depart="144.00">
        <personTrip from="232947458#1" to="28646388#3" walkFactor="0.75"/>
    </person>
    <person id="ped25" type="ped_pedestrian" depart="150.00">
        <personTrip from="443046537#5" to="376865290#1" walkFactor="0.75"/>
    </person>
    <person id="ped26" type="ped_pedestrian" depart="156.00">
        <personTrip from="-4432606#10" to="-150554198#7" walkFactor="0.75"/>
    </person>
    <person id="ped27" type="ped_pedestrian" depart="162.00">
        <personTrip from="-39649666" to="773744301" walkFactor="0.75"/>
    </person>
    <person id="ped28" type="ped_pedestrian" depart="168.00">
        <personTrip from="499675996#3" to="1064398602#0" walkFactor="0.75"/>
    </person>
    <person id="ped29" type="ped_pedestrian" depart="174.00">
        <personTrip from="27244832#12" to="151791264#3" walkFactor="0.75"/>
    </person>
    <person id="ped30" type="ped_pedestrian" depart="180.00">
        <personTrip from="64973069#3" to="183657245#1" walkFactor="0.75"/>
    </person>
    <person id="ped31" type="ped_pedestrian" depart="186.00">
        <personTrip from="235389175#1" to="-690790196" walkFactor="0.75"/>
    </person>
    <person id="ped33" type="ped_pedestrian" depart="198.00">
        <personTrip from="E7_y" to="211731682" walkFactor="0.75"/>
    </person>
    <person id="ped34" type="ped_pedestrian" depart="204.00">
        <personTrip from="-219005869" to="-163773296#3" walkFactor="0.75"/>
    </person>
    <person id="ped35" type="ped_pedestrian" depart="210.00">
        <personTrip from="-240679945#0" to="257675380#1" walkFactor="0.75"/>
    </person>
    <person id="ped36" type="ped_pedestrian" depart="216.00">
        <personTrip from="39316795#1" to="165069586#1" walkFactor="0.75"/>
    </person>
    <person id="ped37" type="ped_pedestrian" depart="222.00">
        <personTrip from="901506733#1" to="461153870" walkFactor="0.75"/>
    </person>
    <person id="ped38" type="ped_pedestrian" depart="228.00">
        <personTrip from="-108404028" to="325363711#1" walkFactor="0.75"/>
    </person>
    <person id="ped39" type="ped_pedestrian" depart="234.00">
        <personTrip from="284813738#3" to="227062821#0" walkFactor="0.75"/>
    </person>
    <person id="ped40" type="ped_pedestrian" depart="240.00">
        <personTrip from="-739924927#2" to="268931687" walkFactor="0.75"/>
    </person>
    <person id="ped41" type="ped_pedestrian" depart="246.00">
        <personTrip from="-24470195#1" to="172808749" walkFactor="0.75"/>
    </person>
    <person id="ped42" type="ped_pedestrian" depart="252.00">
        <personTrip from="180598060#8" to="843681078#1" walkFactor="0.75"/>
    </person>
    <person id="ped43" type="ped_pedestrian" depart="258.00">
        <personTrip from="1012829104#1" to="268877847" walkFactor="0.75"/>
    </person>
    <person id="ped44" type="ped_pedestrian" depart="264.00">
        <personTrip from="253539339#1" to="-27287268" walkFactor="0.75"/>
    </person>
    <person id="ped45" type="ped_pedestrian" depart="270.00">
        <personTrip from="360248215#1" to="227441541" walkFactor="0.75"/>
    </person>
    <person id="ped46" type="ped_pedestrian" depart="276.00">
        <personTrip from="376865396#0" to="223139847" walkFactor="0.75"/>
    </person>
    <person id="ped47" type="ped_pedestrian" depart="282.00">
        <personTrip from="-129556171" to="724854349#0" walkFactor="0.75"/>
    </person>
    <person id="ped48" type="ped_pedestrian" depart="288.00">
        <personTrip from="502060954" to="431889849#1" walkFactor="0.75"/>
    </person>
    <person id="ped49" type="ped_pedestrian" depart="294.00">
        <personTrip from="1034914721" to="-175563728#4" walkFactor="0.75"/>
    </person>
    <person id="ped50" type="ped_pedestrian" depart="300.00">
        <personTrip from="500582851#0" to="79721420#1" walkFactor="0.75"/>
    </person>
    <person id="ped51" type="ped_pedestrian" depart="306.00">
        <personTrip from="-215971175#1" to="190812637#1" walkFactor="0.75"/>
    </person>
    <person id="ped52" type="ped_pedestrian" depart="312.00">
        <personTrip from="-191128494" to="360248187#5" walkFactor="0.75"/>
    </person>
    <person id="ped53" type="ped_pedestrian" depart="318.00">
        <personTrip from="364080659#0" to="-255389621#3" walkFactor="0.75"/>
    </person>
    <person id="ped54" type="ped_pedestrian" depart="324.00">
        <personTrip from="188287272" to="230571244" walkFactor="0.75"/>
    </person>
    <person id="ped55" type="ped_pedestrian" depart="330.00">
        <personTrip from="-69851760#0" to="496350066" walkFactor="0.75"/>
    </person>
    <person id="ped56" type="ped_pedestrian" depart="336.00">
        <personTrip from="165343935" to="-398942400" walkFactor="0.75"/>
    </person>
    <person id="ped57" type="ped_pedestrian" depart="342.00">
        <personTrip from="-376865358" to="104229437#0" walkFactor="0.75"/>
    </person>
    <person id="ped58" type="ped_pedestrian" depart="348.00">
        <personTrip from="-251987384#1" to="-43702375#0" walkFactor="0.75"/>
    </person>
    <person id="ped59" type="ped_pedestrian" depart="354.00">
        <personTrip from="121817389#1" to="24608195#1" walkFactor="0.75"/>
    </person>
    <person id="ped60" type="ped_pedestrian" depart="360.00">
        <personTrip from="-193582128#2" to="263208981#2" walkFactor="0.75"/>
    </person>
    <person id="ped61" type="ped_pedestrian" depart="366.00">
        <personTrip from="-4432606#1" to="60169838" walkFactor="0.75"/>
    </person>
    <person id="ped62" type="ped_pedestrian" depart="372.00">
        <personTrip from="46022378#3" to="-193582128#0" walkFactor="0.75"/>
    </person>
    <person id="ped63" type="ped_pedestrian" depart="378.00">
        <personTrip from="-459177084" to="27391705#0" walkFactor="0.75"/>
    </person>
    <person id="ped65" type="ped_pedestrian" depart="390.00">
        <personTrip from="741029709#0" to="237278681#2" walkFactor="0.75"/>
    </person>
    <person id="ped66" type="ped_pedestrian" depart="396.00">
        <personTrip from="-230152974" to="169690255" walkFactor="0.75"/>
    </person>
    <person id="ped67" type="ped_pedestrian" depart="402.00">
        <personTrip from="165823633#0" to="185578378#3" walkFactor="0.75"/>
    </person>
    <person id="ped68" type="ped_pedestrian" depart="408.00">
        <personTrip from="335980510#1" to="27429648#1" walkFactor="0.75"/>
    </person>
    <person id="ped69" type="ped_pedestrian" depart="414.00">
        <personTrip from="95170292#1" to="-230602997#2" walkFactor="0.75"/>
    </person>
    <person id="ped70" type="ped_pedestrian" depart="420.00">
        <personTrip from="162515571" to="122000756" walkFactor="0.75"/>
    </person>
    <person id="ped71" type="ped_pedestrian" depart="426.00">
        <personTrip from="461177220#1" to="-51909568#0" walkFactor="0.75"/>
    </person>
    <person id="ped72" type="ped_pedestrian" depart="432.00">
        <personTrip from="165069584" to="-867790500#1" walkFactor="0.75"/>
    </person>
    <person id="ped73" type="ped_pedestrian" depart="438.00">
        <personTrip from="-531548528" to="69727096" walkFactor="0.75"/>
    </person>
    <person id="ped74" type="ped_pedestrian" depart="444.00">
        <personTrip from="175491099" to="461176705#1" walkFactor="0.75"/>
    </person>
    <person id="ped75" type="ped_pedestrian" depart="450.00">
        <personTrip from="230602993" to="-165825316#0" walkFactor="0.75"/>
    </person>
    <person id="ped76" type="ped_pedestrian" depart="456.00">
        <personTrip from="En3" to="43866170#1" walkFactor="0.75"/>
    </person>
    <person id="ped77" type="ped_pedestrian" depart="462.00">
        <personTrip from="898411444#0" to="69851760#0" walkFactor="0.75"/>
    </person>
    <person id="ped79" type="ped_pedestrian" depart="474.00">
        <personTrip from="-69851760#1" to="38435455" walkFactor="0.75"/>
    </person>
    <person id="ped80" type="ped_pedestrian" depart="480.00">
        <personTrip from="181503324" to="165343934" walkFactor="0.75"/>
    </person>
    <person id="ped81" type="ped_pedestrian" depart="486.00">
        <personTrip from="854928372" to="E2_n2" walkFactor="0.75"/>
    </person>
    <person id="ped82" type="ped_pedestrian" depart="492.00">
        <personTrip from="232947445" to="320252634#10" walkFactor="0.75"/>
    </person>
    <person id="ped83" type="ped_pedestrian" depart="498.00">
        <personTrip from="-27610892#1" to="100442337#6" walkFactor="0.75"/>
    </person>
    <person id="ped85" type="ped_pedestrian" depart="510.00">
        <personTrip from="227991189#5" to="356166741#1" walkFactor="0.75"/>
    </person>
    <person id="ped86" type="ped_pedestrian" depart="516.00">
        <personTrip from="-175563641#0" to="24534083#1" walkFactor="0.75"/>
    </person>
    <person id="ped89" type="ped_pedestrian" depart="534.00">
        <personTrip from="-210585864#0" to="-35948955#1" walkFactor="0.75"/>
    </person>
    <person id="ped90" type="ped_pedestrian" depart="540.00">
        <personTrip from="25099320#3" to="276261571#13" walkFactor="0.75"/>
    </person>
    <person id="ped91" type="ped_pedestrian" depart="546.00">
        <personTrip from="-44828708" to="-24922594#0" walkFactor="0.75"/>
    </person>
    <person id="ped93" type="ped_pedestrian" depart="558.00">
        <personTrip from="164044469" to="24533418" walkFactor="0.75"/>
    </person>
    <person id="ped95" type="ped_pedestrian" depart="570.00">
        <personTrip from="En0" to="E3_vu3" walkFactor="0.75"/>
    </person>
    <person id="ped96" type="ped_pedestrian" depart="576.00">
        <personTrip from="-201494611#0" to="-402016774" walkFactor="0.75"/>
    </person>
    <person id="ped97" type="ped_pedestrian" depart="582.00">
        <personTrip from="436096922#0" to="305823737#0" walkFactor="0.75"/>
    </person>
    <person id="ped98" type="ped_pedestrian" depart="588.00">
        <personTrip from="254235307#5" to="967938217" walkFactor="0.75"/>
    </person>
    <person id="ped99" type="ped_pedestrian" depart="594.00">
        <personTrip from="27245696" to="749486251#1" walkFactor="0.75"/>
    </person>
    <person id="ped100" type="ped_pedestrian" depart="600.00">
        <personTrip from="-267265184#0" to="-245939113#2" walkFactor="0.75"/>
    </person>
    <person id="ped102" type="ped_pedestrian" depart="612.00">
        <personTrip from="-80599432#0" to="253488943" walkFactor="0.75"/>
    </person>
    <person id="ped103" type="ped_pedestrian" depart="618.00">
        <personTrip from="320190186#1" to="-37811442#0" walkFactor="0.75"/>
    </person>
    <person id="ped104" type="ped_pedestrian" depart="624.00">
        <personTrip from="266236584" to="-69727049#0" walkFactor="0.75"/>
    </person>
    <person id="ped105" type="ped_pedestrian" depart="630.00">
        <personTrip from="191128494" to="60169838" walkFactor="0.75"/>
    </person>
    <person id="ped106" type="ped_pedestrian" depart="636.00">
        <personTrip from="165823633#0" to="-85287421#1" walkFactor="0.75"/>
    </person>
    <person id="ped107" type="ped_pedestrian" depart="642.00">
        <personTrip from="-103170336" to="366073484#1" walkFactor="0.75"/>
    </person>
    <person id="ped108" type="ped_pedestrian" depart="648.00">
        <personTrip from="268877829" to="-659292414" walkFactor="0.75"/>
    </person>
    <person id="ped109" type="ped_pedestrian" depart="654.00">
        <personTrip from="351143414#1" to="231285503#3" walkFactor="0.75"/>
    </person>
    <person id="ped110" type="ped_pedestrian" depart="660.00">
        <personTrip from="169684595#2" to="-107085662#2" walkFactor="0.75"/>
    </person>
    <person id="ped111" type="ped_pedestrian" depart="666.00">
        <personTrip from="-205880172" to="520824524#3" walkFactor="0.75"/>
    </person>
    <person id="ped112" type="ped_pedestrian" depart="672.00">
        <personTrip from="600447897" to="229239400" walkFactor="0.75"/>
    </person>
    <person id="ped113" type="ped_pedestrian" depart="678.00">
        <personTrip from="43702375#3" to="24490894" walkFactor="0.75"/>
    </person>
    <person id="ped114" type="ped_pedestrian" depart="684.00">
        <personTrip from="-27245133#1" to="-254957236#0" walkFactor="0.75"/>
    </person>
    <person id="ped115" type="ped_pedestrian" depart="690.00">
        <personTrip from="103864417#0" to="57016160#0" walkFactor="0.75"/>
    </person>
    <person id="ped116" type="ped_pedestrian" depart="696.00">
        <personTrip from="395673319" to="461153870" walkFactor="0.75"/>
    </person>
    <person id="ped117" type="ped_pedestrian" depart="702.00">
        <personTrip from="-524765355" to="-235391527#2" walkFactor="0.75"/>
    </person>
    <person id="ped118" type="ped_pedestrian" depart="708.00">
        <personTrip from="377709918" to="53016881#1" walkFactor="0.75"/>
    </person>
    <person id="ped119" type="ped_pedestrian" depart="714.00">
        <personTrip from="163235126#0" to="254952129#1" walkFactor="0.75"/>
    </person>
    <person id="ped120" type="ped_pedestrian" depart="720.00">
        <personTrip from="-27610890" to="72594728#1" walkFactor="0.75"/>
    </person>
    <person id="ped121" type="ped_pedestrian" depart="726.00">
        <personTrip from="464136952#0" to="92156243#0" walkFactor="0.75"/>
    </person>
    <person id="ped122" type="ped_pedestrian" depart="732.00">
        <personTrip from="-139692115#3" to="349836789" walkFactor="0.75"/>
    </person>
    <person id="ped123" type="ped_pedestrian" depart="738.00">
        <personTrip from="110394238" to="729913426" walkFactor="0.75"/>
    </person>
    <person id="ped124" type="ped_pedestrian" depart="744.00">
        <personTrip from="39649664#1" to="464136947" walkFactor="0.75"/>
    </person>
    <person id="ped126" type="ped_pedestrian" depart="756.00">
        <personTrip from="387015281" to="-240679912" walkFactor="0.75"/>
    </person>
    <person id="ped127" type="ped_pedestrian" depart="762.00">
        <personTrip from="-429104325#0" to="409050024" walkFactor="0.75"/>
    </person>
    <person id="ped128" type="ped_pedestrian" depart="768.00">
        <personTrip from="184478074#0" to="1034115245#1" walkFactor="0.75"/>
    </person>
    <person id="ped129" type="ped_pedestrian" depart="774.00">
        <personTrip from="-134424675#0" to="-366073455#0" walkFactor="0.75"/>
    </person>
    <person id="ped130" type="ped_pedestrian" depart="780.00">
        <personTrip from="1098919001#29" to="464136950" walkFactor="0.75"/>
    </person>
    <person id="ped131" type="ped_pedestrian" depart="786.00">
        <personTrip from="894189050" to="-87712914#1" walkFactor="0.75"/>
    </person>
    <person id="ped132" type="ped_pedestrian" depart="792.00">
        <personTrip from="269001617" to="162513809" walkFactor="0.75"/>
    </person>
    <person id="ped133" type="ped_pedestrian" depart="798.00">
        <personTrip from="749504931#3" to="-245939113#1" walkFactor="0.75"/>
    </person>
    <person id="ped135" type="ped_pedestrian" depart="810.00">
        <personTrip from="-240679928#0" to="172808747" walkFactor="0.75"/>
    </person>
    <person id="ped136" type="ped_pedestrian" depart="816.00">
        <personTrip from="253488996" to="214788224#0" walkFactor="0.75"/>
    </person>
    <person id="ped137" type="ped_pedestrian" depart="822.00">
        <personTrip from="150837582#3" to="240679876" walkFactor="0.75"/>
    </person>
    <person id="ped138" type="ped_pedestrian" depart="828.00">
        <personTrip from="-572455968#2" to="308378841" walkFactor="0.75"/>
    </person>
    <person id="ped139" type="ped_pedestrian" depart="834.00">
        <personTrip from="-102152771#0" to="69731561" walkFactor="0.75"/>
    </person>
    <person id="ped140" type="ped_pedestrian" depart="840.00">
        <personTrip from="227228184" to="320630988#2" walkFactor="0.75"/>
    </person>
    <person id="ped141" type="ped_pedestrian" depart="846.00">
        <personTrip from="27246000#0" to="1101640525#0" walkFactor="0.75"/>
    </person>
    <person id="ped142" type="ped_pedestrian" depart="852.00">
        <personTrip from="1063016035" to="44828412#6" walkFactor="0.75"/>
    </person>
    <person id="ped144" type="ped_pedestrian" depart="864.00">
        <personTrip from="162515569#2" to="-En7" walkFactor="0.75"/>
    </person>
    <person id="ped145" type="ped_pedestrian" depart="870.00">
        <personTrip from="762831988" to="28143928#2" walkFactor="0.75"/>
    </person>
    <person id="ped146" type="ped_pedestrian" depart="876.00">
        <personTrip from="597172848" to="254496220#0" walkFactor="0.75"/>
    </person>
    <person id="ped147" type="ped_pedestrian" depart="882.00">
        <personTrip from="102345556#0" to="230152981" walkFactor="0.75"/>
    </person>
    <person id="ped148" type="ped_pedestrian" depart="888.00">
        <personTrip from="27244261#2" to="185578024" walkFactor="0.75"/>
    </person>
    <person id="ped149" type="ped_pedestrian" depart="894.00">
        <personTrip from="187628760#1" to="57846937" walkFactor="0.75"/>
    </person>
    <person id="ped151" type="ped_pedestrian" depart="906.00">
        <personTrip from="-215955746#1" to="215925961#1" walkFactor="0.75"/>
    </person>
    <person id="ped152" type="ped_pedestrian" depart="912.00">
        <personTrip from="263990616" to="114460702" walkFactor="0.75"/>
    </person>
    <person id="ped154" type="ped_pedestrian" depart="924.00">
        <personTrip from="27418198#2" to="-43702375#0" walkFactor="0.75"/>
    </person>
    <person id="ped155" type="ped_pedestrian" depart="930.00">
        <personTrip from="-374616071#1" to="-134424676#3" walkFactor="0.75"/>
    </person>
    <person id="ped156" type="ped_pedestrian" depart="936.00">
        <personTrip from="-494440497#1" to="188286749#1" walkFactor="0.75"/>
    </person>
    <person id="ped157" type="ped_pedestrian" depart="942.00">
        <personTrip from="-366073469#0" to="300040782" walkFactor="0.75"/>
    </person>
    <person id="ped159" type="ped_pedestrian" depart="954.00">
        <personTrip from="-240348395#0" to="165825876" walkFactor="0.75"/>
    </person>
    <person id="ped160" type="ped_pedestrian" depart="960.00">
        <personTrip from="-33178511#4" to="85619563#12" walkFactor="0.75"/>
    </person>
    <person id="ped161" type="ped_pedestrian" depart="966.00">
        <personTrip from="-520824524#2" to="44828412#9" walkFactor="0.75"/>
    </person>
    <person id="ped162" type="ped_pedestrian" depart="972.00">
        <personTrip from="27302691#0" to="972789502#1" walkFactor="0.75"/>
    </person>
    <person id="ped163" type="ped_pedestrian" depart="978.00">
        <personTrip from="25099320#7" to="821851854" walkFactor="0.75"/>
    </person>
    <person id="ped164" type="ped_pedestrian" depart="984.00">
        <personTrip from="53175069#1" to="254362648#2" walkFactor="0.75"/>
    </person>
    <person id="ped165" type="ped_pedestrian" depart="990.00">
        <personTrip from="320630988#0" to="208424711#0" walkFactor="0.75"/>
    </person>
    <person id="ped166" type="ped_pedestrian" depart="996.00">
        <personTrip from="429065350#1" to="230152981" walkFactor="0.75"/>
    </person>
    <person id="ped167" type="ped_pedestrian" depart="1002.00">
        <personTrip from="-500582851#1" to="268877837#2" walkFactor="0.75"/>
    </person>
    <person id="ped168" type="ped_pedestrian" depart="1008.00">
        <personTrip from="364071765#1" to="217387497" walkFactor="0.75"/>
    </person>
    <person id="ped169" type="ped_pedestrian" depart="1014.00">
        <personTrip from="-79721497#1" to="1080597759" walkFactor="0.75"/>
    </person>
    <person id="ped170" type="ped_pedestrian" depart="1020.00">
        <personTrip from="227441549" to="-270905183#0" walkFactor="0.75"/>
    </person>
    <person id="ped171" type="ped_pedestrian" depart="1026.00">
        <personTrip from="306029065#4" to="-187628743#0" walkFactor="0.75"/>
    </person>
    <person id="ped172" type="ped_pedestrian" depart="1032.00">
        <personTrip from="163235137" to="227991190#2" walkFactor="0.75"/>
    </person>
    <person id="ped173" type="ped_pedestrian" depart="1038.00">
        <personTrip from="164092973#1" to="60169830#0" walkFactor="0.75"/>
    </person>
    <person id="ped174" type="ped_pedestrian" depart="1044.00">
        <personTrip from="24534083#0" to="299661658#0" walkFactor="0.75"/>
    </person>
    <person id="ped175" type="ped_pedestrian" depart="1050.00">
        <personTrip from="457856894" to="364071765#0" walkFactor="0.75"/>
    </person>
    <person id="ped176" type="ped_pedestrian" depart="1056.00">
        <personTrip from="150694614#1" to="-1055823708#3" walkFactor="0.75"/>
    </person>
    <person id="ped177" type="ped_pedestrian" depart="1062.00">
        <personTrip from="454541478" to="843681073#1" walkFactor="0.75"/>
    </person>
    <person id="ped178" type="ped_pedestrian" depart="1068.00">
        <personTrip from="229239405" to="252477790#0" walkFactor="0.75"/>
    </person>
    <person id="ped179" type="ped_pedestrian" depart="1074.00">
        <personTrip from="-420551650" to="-420551633#6" walkFactor="0.75"/>
    </person>
    <person id="ped180" type="ped_pedestrian" depart="1080.00">
        <personTrip from="185579781#4" to="-254957236#2" walkFactor="0.75"/>
    </person>
    <person id="ped181" type="ped_pedestrian" depart="1086.00">
        <personTrip from="151785775" to="235391751" walkFactor="0.75"/>
    </person>
    <person id="ped182" type="ped_pedestrian" depart="1092.00">
        <personTrip from="-269124388" to="185325721" walkFactor="0.75"/>
    </person>
    <person id="ped183" type="ped_pedestrian" depart="1098.00">
        <personTrip from="-165825311#2" to="150694611#3" walkFactor="0.75"/>
    </person>
    <person id="ped184" type="ped_pedestrian" depart="1104.00">
        <personTrip from="-398942398" to="1098919001#17" walkFactor="0.75"/>
    </person>
    <person id="ped185" type="ped_pedestrian" depart="1110.00">
        <personTrip from="360248197#1" to="150694611#4" walkFactor="0.75"/>
    </person>
    <person id="ped187" type="ped_pedestrian" depart="1122.00">
        <personTrip from="-128783418#0" to="227441541" walkFactor="0.75"/>
    </person>
    <person id="ped188" type="ped_pedestrian" depart="1128.00">
        <personTrip from="En9" to="130116103" walkFactor="0.75"/>
    </person>
    <person id="ped189" type="ped_pedestrian" depart="1134.00">
        <personTrip from="27244035" to="377714518" walkFactor="0.75"/>
    </person>
    <person id="ped191" type="ped_pedestrian" depart="1146.00">
        <personTrip from="-129556180" to="-27261757#3" walkFactor="0.75"/>
    </person>
    <person id="ped192" type="ped_pedestrian" depart="1152.00">
        <personTrip from="-254952129#3" to="27391708#0" walkFactor="0.75"/>
    </person>
    <person id="ped193" type="ped_pedestrian" depart="1158.00">
        <personTrip from="300068767#4" to="364288595#3" walkFactor="0.75"/>
    </person>
    <person id="ped194" type="ped_pedestrian" depart="1164.00">
        <personTrip from="104363154" to="28143931#0" walkFactor="0.75"/>
    </person>
    <person id="ped195" type="ped_pedestrian" depart="1170.00">
        <personTrip from="319037854#0" to="-206583401#1" walkFactor="0.75"/>
    </person>
    <person id="ped196" type="ped_pedestrian" depart="1176.00">
        <personTrip from="295252098#2" to="257060264#0" walkFactor="0.75"/>
    </person>
    <person id="ped197" type="ped_pedestrian" depart="1182.00">
        <personTrip from="-235389175#0" to="369239271#1" walkFactor="0.75"/>
    </person>
    <person id="ped198" type="ped_pedestrian" depart="1188.00">
        <personTrip from="44828708" to="251816549" walkFactor="0.75"/>
    </person>
    <person id="ped199" type="ped_pedestrian" depart="1194.00">
        <personTrip from="-251987384#2" to="95170291#1" walkFactor="0.75"/>
    </person>
    <person id="ped200" type="ped_pedestrian" depart="1200.00">
        <personTrip from="44828621#1" to="420551624#1" walkFactor="0.75"/>
    </person>
    <person id="ped201" type="ped_pedestrian" depart="1206.00">
        <personTrip from="267411754#3" to="4220905" walkFactor="0.75"/>
    </person>
    <person id="ped202" type="ped_pedestrian" depart="1212.00">
        <personTrip from="339381133" to="894140688" walkFactor="0.75"/>
    </person>