<?xml version="1.0" encoding="UTF-8"?>

<!-- generated on 2023-03-06 16:03:50.505309 by randomTrips.py v1_14_1+0000-f654d7b963e
<configuration>
    <end value="3600"/>
    <fringe-factor value="2.0"/>
    <fringe-start-attributes value="departSpeed=&quot;max&quot;"/>
    <max-distance value="8000.0"/>
    <net-file value="osm.net.xml"/>
    <period value="5.0"/>
    <route-file value="osm.bicycle.rou.xml"/>
    <trip-attributes value="departLane=&quot;best&quot;"/>
    <output-trip-file value="osm.bicycle.trips.xml"/>
    <prefix value="bike"/>
    <validate value="True"/>
    <vclass value="bicycle"/>
    <vehicle-class value="bicycle"/>
</configuration>
-->

<!-- generated on 2023-03-06 16:03:48 by Eclipse SUMO duarouter Version 1.14.1
<configuration xmlns:xsi="http://www.w3.org/2001/XMLSchema-instance" xsi:noNamespaceSchemaLocation="http://sumo.dlr.de/xsd/duarouterConfiguration.xsd">

    <input>
        <net-file value="osm.net.xml"/>
        <route-files value="osm.bicycle.trips.xml"/>
    </input>

    <output>
        <output-file value="osm.bicycle.rou.xml"/>
        <alternatives-output value="NUL"/>
    </output>

    <time>
        <begin value="0"/>
        <end value="3600"/>
    </time>

    <report>
        <no-warnings value="true"/>
        <ignore-errors value="true"/>
        <no-step-log value="true"/>
    </report>

</configuration>
-->

<routes xmlns:xsi="http://www.w3.org/2001/XMLSchema-instance" xsi:noNamespaceSchemaLocation="http://sumo.dlr.de/xsd/routes_file.xsd">
    <vType id="bike_bicycle" vClass="bicycle"/>
    <vehicle id="bike0" type="bike_bicycle" depart="0.00" departLane="best">
        <route edges="240348395#3 240348395#4 33083419#1 33083419#2 43703049 898486014#1 190443688#0 898480456 898465326#0 190443836 898484255 898484254 898459770 189769943#0 269040917#0 127607225#2 127607225#3 23567306#1 269040899 -139692088#2"/>
    </vehicle>
    <vehicle id="bike1" type="bike_bicycle" depart="5.00" departLane="best" departSpeed="max">
        <route edges="-377374718 182489957#2 -260098532 930192517#0 -187628785#0 187628789 270905174#0 270905174#1 -56185657#0 150549249#0 305829909#0 305829909#1 305829909#2 24533403 356166743#1 356166743#2 356166741#1 356166741#2 -86303405 -230152974 -230152987 -38141501#0 -25778239#1 -235389175#7 -235389175#2 -235389175#1 -235389175#0 -235388715#5 -235388715#3 -235388715#0 -868056904 -235390938 235390937 251987384#1 251987384#2 251987384#3 269001615#1 235391298 151820719 24533443#0 24533443#1 164092564 -53040718#3 -53040718#2 150663777 -421517196#2 -421517196#1 -421517196#0 350679381 -350679381"/>
    </vehicle>
    <vehicle id="bike2" type="bike_bicycle" depart="10.00" departLane="best">
        <route edges="27247877 251816561 251816565#0 5475849#1 182826554 27247873 27247875 25890468 25890467 127608716 192428988#0 192428988#2 4082985#0 253488995 189765126#0 189765126#1 189765125#0 189765125#1 189765125#2 253488997#1 189764998 189764999#0 189764716#0 189764716#1 189764717#0 190463206#1 95170275 95170275.39 93785463#0 93785463#0.10 93785463#0.22 93785463#1 190458990#0 151788685 269017597#0 269017597#1 1085759979#0 1085759979#1 1085759979#3 1085759981#0 1085759981#1 190458063 27244834#1 -27244832#5 -27244832#4 -27244832#3 -27244832#2 -27244832#1 -27244832#0 27244248#0 27244248#1 27244248#2 27244248#3 27244248#4 27244248#5 27244248#6 27244255"/>
    </vehicle>
    <vehicle id="bike3" type="bike_bicycle" depart="15.00" departLane="best">
        <route edges="44828412#7 -44828412#7 -44828412#6 -44828412#5 44828761#0 44828761#1 44828761#2 44828761#3 44828761#5 270684579 22763251#0 22763251#1 22763251#2 22763251#5 -253488970#1 -253488970#0 -253488973#1 -253488968 -190462985 190462984#0 53573995#2 189764669#0 249461334#1 249461334#4 253488996 253488994 35951977#0 35951977#1 127608718#0 127608718#1 251816580 189765373 189765377 53175063#0 150851811#2 898486015 898486014#0 898486014#1 190443688#0 898480456 898465326#0 190443836 898484255 898484254 898459770 189769943#0 204247179 -204247179"/>
    </vehicle>
    <vehicle id="bike4" type="bike_bicycle" depart="20.00" departLane="best">
        <route edges="107085661 165849627#1 165849627#2 150837585#0 150837585#2 150837585#3 387015293#3 387015293#4 409702805 409702804 191003930#0 150556234#1 165823636 227062816 165828294#0 581663849 190431168#1 190431168#2 190431168#3 227062818#1 227062818#3 227062818#4 227062813#0 227062813#1 227062813#2 227062813#3 258979261 102688443 79058578#1 -58127003#1 -58127003#0 320222738#1 31648322#1 31648322#2 31648189 320240823 31648190#0 31648190#1 739924926 739924928#0 739924928#1 35014371#0 35014371#3 35014371#4 35014371#5 149951202#0 149951202#1 149951202#2 149951202#3 149951202#4 -149951202#4 -149951202#3"/>
    </vehicle>
    <vehicle id="bike5" type="bike_bicycle" depart="25.00" departLane="best">
        <route edges="-29504040 -210441943 -209308036 -210362483#1 -210362483#0 210362487 -218279122 -33083416 -217400444 -217400437#0 -216146979 30845552#0 30845552#1 30845552#2 30845552#3 -148359950#3 -148359950#2 -148359950#1 -148359950#0 -254235290#4 -254235290#3 -254235290#1 -254235290#0 -254235313#2 -254235313#1 -254235313#0 193326803#0 193326803#1 -231387753#0 -193326801 -27134342 27134350 27134351#1 187628766 94991330#2 35134171 122000749#0 191128490#0"/>
    </vehicle>
    <vehicle id="bike6" type="bike_bicycle" depart="30.00" departLane="best">
        <route edges="-133302357 133302356 -690790196 -690790197 -24909174#13 -24909174#12 -24909174#11 -24909174#7 -24909174#4 -24909174#3 -24909174#2 -24909174#1 -102486913#3 -102486913#1 -102486913#0 -268931675#0 187060053#0 187060055 53175058 315426061 315426062 150000852 404599856 255225031#3 404599855#1 404599857#0 299634627#0 -299634627#0"/>
    </vehicle>
    <vehicle id="bike7" type="bike_bicycle" depart="35.00" departLane="best">
        <route edges="24534182 4432617 27261757#0 27261757#1 27261757#2 27261757#3 262140928 28297618#0 28297618#1 502060953#0 502060953#1 420551407#0 182065983#1 53175058 315426061 315426062 150000852 189773010#0 149996793 251158323 251158322#1 548514765 228126460#0 316778911#1 287186149#1 251161865#1 -97301278#2 -97301289#2 -97301289#1 -39698436 -33205876#0 -255894041#0 778989042#0 778989042#1 373426447#0 373426447#2 -693551884#0 148357184#0 148357184#1 219005866#1 219005866#2 219005865#1 148357182#8 148357182#9 148357182#10 218061157#0 218061157#1 218061155 218061156#1"/>
    </vehicle>
    <vehicle id="bike8" type="bike_bicycle" depart="40.00" departLane="best" departSpeed="max">
        <route edges="-299637114 -23055466#1 -23055466#0 387015293#0 387015293#1 387015293#2 387015293#3 387015293#4 409702805 409702804 191003930#0 150556234#1 165823636 227062816 165828294#0 581663849 190431168#1 190431168#2 190431168#3 227062818#1 227062818#3 227062818#4 227062813#0 227062813#1 227062813#2 227062813#3 258979261 102688443 79058578#1 -58127003#1 -58127003#0 320222738#1 31648322#1 31648322#2 31648189 320240823 31648190#0 31648190#1 739924926 739924928#0 739924928#1 35014371#0 35014371#3 240321451 240321448#4 -240321448#2 240321448#2"/>
    </vehicle>
    <vehicle id="bike9" type="bike_bicycle" depart="45.00" departLane="best">
        <route edges="360248211#4 28874733#0 28874733#1 29065540#0 31045126#1 258979265#1 628505597 165849631 1055826508 1062460664 387015255 4220893#0 255393423 165849627#0 165849627#1 165849627#2 165849627#3 165849627#7 165849627#8 165849627#9 376865290#1 300034825 472148300 867790499#0 867790499#1 253488980 149898017#0 150000852 189773010#0 150770619#1 948937424#0 -150770615#1 -150770615#0 150851814#0 150851814#1 150851814#2 150851814#3 150851814#4 150851814#5 366073485#1 240348395#0 240348395#1 240348395#2 240348395#3 240348395#4 240348395#5 240348395#6 240348395#7 500527046#1 175580620#0 53175062#0 127607593 192428989 7656757 27247877 251816561 251816565#0 -10712593#2 -10712593#1"/>
    </vehicle>
    <vehicle id="bike10" type="bike_bicycle" depart="50.00" departLane="best">
        <route edges="360037734#0 360037734#1 360037734#2 -31648289 -164506584#1 -164506584#0 182489957#0 182489957#1 182489957#2 930192518 -371306931 -999862406 -190340310#0 -150549242#1 -150549242#0 -999862407 -320252634#12 -320252634#11 -320252634#10 -320252634#9 -320252634#8 -320252634#5 -320252634#3 -320252634#2 -320252634#1 -320252634#0 -265910769 320222738#1 320256282 320239492#0 320239492#1 -104363155#1 24377359 56185654 56185655#0 56185655#1 189776524 56454445 187057791#0 187057791#1 187057791#2 23137790#2 150543795 56186952 922053740 35134167#0 35134167#2 35134167#3 276412885 276412658 189877634#0 96747828#0 -96851712#0 96851712#0 7980446#1 7980446#2 7980446#3 7980446#4 107085648#0 107085648#1 27610888#0 27610888#1"/>
    </vehicle>
    <vehicle id="bike11" type="bike_bicycle" depart="55.00" departLane="best">
        <route edges="-53573984#3 -53573984#2 4400844#0 270684576#0 270684576#1 270684579 22763251#0 22763251#1 22763251#2 22763251#5 -253488970#1 -253488970#0 -253488973#1 -253488968 -190462985 190462984#0 53573995#2 189764669#0 35951506#1 35951506#3 193582128#0 193582128#1 193582128#2 366073488#0 366073488#1 431557293#0 431557293#2 40521208#1 431557291 40521205#0 40521205#1 366073489#1 366073489#2 366073489#3 366073490#1 366073490#2 366073490#3 230602997#0 230602997#0.14 230602997#1 230602997#2 366073486 282331232#0 282331232#1 203461111 203461112#1 149996793 251158323 251158322#1 548514765 228126460#0 316778911#1 287186149#1 251161865#1 -97301278#2 -97301289#2 -97301289#1 -39698436 -33205876#0 -255894041#0 -255894049#1 -255894049#0"/>
    </vehicle>
    <vehicle id="bike12" type="bike_bicycle" depart="60.00" departLane="best">
        <route edges="79683431#1 181844308 35953670 -922053733#1 -922053733#0 251102622#0 -E3_y -127606907#3 -127606907#2 -127606907#1 -127606907#0 -189032455 14104725#0 14104725#1 14104725#2 249599484#3 238870175#1 941558922 -967938217"/>
    </vehicle>
    <vehicle id="bike13" type="bike_bicycle" depart="65.00" departLane="best">
        <route edges="-193582128#0 35951507#1 25890650#1 249461334#4 253488996 253488994 35951977#0 35951977#1 127608718#0 127608718#1 251816580 189765373 189765377 175588575#0 53175062#0 127607593 192428989 7656757 27247877 251816561 251816565#0 -10712593#2 -10712593#1 429104325#0 429104325#1 171793097#0 171793097#1 -178935171#0 -778982229#0 -121541411#0 -597172848 251816548 227205258#1 229619678#0 229619678#1 229619682#0 229619682#1 229591994#0 205880172 10510838 206972874#1 -214228962 -214586607#0"/>
    </vehicle>
    <vehicle id="bike14" type="bike_bicycle" depart="70.00" departLane="best">
        <route edges="39649666 215925850#1 215925850#2 215925852#1 18639552#7 18639552#8 18639552#9 18639552#10 18639552#11 -227695408#3 E22_y8 E14.14 Emkebike15 Emkbike15.14 14189039#0 14189039#1 14189039#2 221260831 190348536#0 5475849#1 182826554 27247873 27247875 25890468 25890467 127608716 192428988#0 192428988#2 4082985#0 253488995 189765126#0 189765126#1 24573650#0 24573650#2 24573650#3 46963142#1 46963142#3 190812637#1 208424711#0 208424711#1 -24532348#1 -24532348#0 -150857994#1 24549608#1"/>
    </vehicle>
    <vehicle id="bike15" type="bike_bicycle" depart="75.00" departLane="best">
        <route edges="360248187#5 360248187#6 360248187#7 89478024#0 89478024#1 89478026#0 508099915#0 508099915#1 258979265#0 359726683#0 359726683#1 359726683#2 -317890187 -479860652 276412885 276412658 189877634#0 96747828#0 -97301278#2 -97301289#2 -97301289#1 -39698436 -33205876#0 -255894041#0 778989042#0 778989042#1 373426447#0 373426447#2 -693551884#0 148357184#0 148357184#1 219005866#1 -597172837 -365158567 257676226#1 257676226#2 339365824 520824524#0 520824524#1 520824524#2 520824524#3 217382713#1 217382713#2 217382713#3 150741844 162754862#0 162754862#2 229619684 205880175#0 205880175#1 205880175#2 442545004#1 442545005 309740480#4"/>
    </vehicle>
    <vehicle id="bike16" type="bike_bicycle" depart="80.00" departLane="best">
        <route edges="182489863 190340311 164506584#0 164506584#1 164506584#3 -360037734#2 -360037734#1 -360037734#0 -306032457 306029386#0 306029386#1 306032429 -40586130#3 -40586130#2 -40586130#1 -40586130#0 -35014373#3 -905263501#1 905263502#1"/>
    </vehicle>
    <vehicle id="bike17" type="bike_bicycle" depart="85.00" departLane="best">
        <route edges="-851768157 -206827473 -18639552#3 215971173#0 -442545005 -442545004#1 -205880175#2 -205880175#1 -205880175#0 205988835 254497023 224883546"/>
    </vehicle>
    <vehicle id="bike18" type="bike_bicycle" depart="90.00" departLane="best">
        <route edges="376865360 227992417 182065983#1 53175058 315426061 315426062 150000852 189773010#0 149996793 251158323"/>
    </vehicle>
    <vehicle id="bike19" type="bike_bicycle" depart="95.00" departLane="best">
        <route edges="415123460#1 415123460#2 -415123460#2 -415123460#1 -415123460#0 -150893550#1 -215971171#1 -215971171#0 -216128744#1 -216128744#0 872973889 -29504037 205422863#1 -209308037#4 -209308037#3 -209308037#2 -209308037#1 -209308037#0 -209308036 -210362483#1 -210362483#0 210362487 -214586669 -218303471#0 -24685067 148357182#10 148357182#11 148357182#1 148357182#2 148357182#3 148357183#0 148357183#1 218025853#0 218025853#1 218025853#2 373426448#1 373426448#2 24685084#0 24685085 280873251#0 206777521#1 23566451#0 23566451#1 335986848#2 230991290#0 23055277#1 432348156 255225445#0 230602993 190438083#1 269040907#0 269040907#1 149899941 253488977#0 42760138 149904354 460396653 218778912 268931658 42760136 268931654#1 147683979#0 147683979#2 269001617 171453050 24533443#0 164092489#0 164092973#4 150694607#2 183654500#0 183654500#1 183413425 235390974"/>
    </vehicle>
    <vehicle id="bike20" type="bike_bicycle" depart="100.00" departLane="best">
        <route edges="269001621#3 269001620#0 102491096#0 251987384#1 251987384#2 251987384#3 269001615#1 235391298 151820719 24533443#0 24533443#1 164092564 -53040718#3 -53040718#2 150663777 -319999605#7 -319999605#6 -319999605#5 -319999605#4 4432614#0 4432614#1 24534186#1 -94586280#1 -94586280#0 -502060954 -24532277#1 -24532277#0 -108404028 500261497 150837582#1 150837582#2 150837582#3 185579896#0 185579896#1 53175059#1 1081335276 187061084 187061084.80 E18_y E18.17 93785348 55608997 95170292#1 95170292#2 190462985 253488968 253488973#1 253488970#0 253488970#1 4400845#0 4400845#1 4400845#3 4400845#4 4400845#5 4400845#6 4400845#7 -270684579 -270684576#1 -270684576#0 -4400844#0 53573984#2 53573984#3 638123367#0 638123367#1 638123367#2 27870084#0 27870084#1 27870084#2 150892480 -150892480"/>
    </vehicle>
    <vehicle id="bike21" type="bike_bicycle" depart="105.00" departLane="best">
        <route edges="-306029065#3 -958060080 306029065#4 306029065#5 -40586130#0 149956819#0 475170458 -475170457#0"/>
    </vehicle>
    <vehicle id="bike22" type="bike_bicycle" depart="110.00" departLane="best" departSpeed="max">
        <route edges="-183055815 102397616#1 10712593#1 -10712593#1 -102397616#1 251816561 251816565#0 5475849#1 182826554 27247873 27247875 25890468 25890467 199383409#2 251816560#0 35951977#1 127608718#0 127608718#1 251816580 189765373 189765377 53175063#0 175580619#1 -240348395#7 -240348395#6 -240348395#5 -240348395#4 -240348395#3 -240348395#2 -240348395#1 -240348395#0 -366073485#1 -150851814#5 -150851814#4 -150851814#3 -150851814#2 -150851814#1 -150851814#0 150770615#0 150770615#1 948937425#2 948937423 203461111 203461112#1 230602993 190438083#1 404599856 255225031#3 404599855#1 404599857#0 404599857#1 404599857#2 387015293#0 387015293#1 387015293#2 387015293#3 387015293#4 409702805 409702804 191003930#0 150556234#1 -360248182#2 -360248182#0"/>
    </vehicle>
    <vehicle id="bike23" type="bike_bicycle" depart="115.00" departLane="best">
        <route edges="-208424711#1 -208424711#0 -150857993#2 -150857993#1 -150857993#0 253488999#2 253488999#3 -43866170#1 -43866170#0 -43866169#0 -1081335277 151785742#0 95170292#1 95170292#2 190462985 253488968 253488973#1 253488970#0 253488970#1 4400845#0 4400845#1 4400845#3 4400845#4 4400845#5 4400845#6 4400845#7 -270684579 44827812#1 44827812#3 44827812#4 44827812#5 44827812#6 44828760 254954208#2 -44828711#1 -44828577#1 -44828710#0 -44828427#0"/>
    </vehicle>
    <vehicle id="bike24" type="bike_bicycle" depart="120.00" departLane="best">
        <route edges="240321445#7 240321445#8 240321445#9 306032644 306032645 360036562 360037729#1 306032456 306032457 360037734#0 360037734#1 360037734#2 -31648289 -164506584#1 -164506584#0 182489957#0 182489957#1 182489957#2 930192518 -371306931 -999862406 -190340310#0 -150549242#1 -150549242#0 -999862407 -320252634#12 -320252634#11 -320252634#10 -320252634#9 -320252634#8 -320252634#5 -320252634#3 -320252634#2 -320252634#1 -320252634#0 -265910769 85287421#0 85287421#1 -79058578#1 -79058578#0 -253605121#2 142248731#1 -150546878#1 -150546878#0 19354458#0 19354458#1 19354458#2 150546879#0 150546879#1 19354456 442789059 179527904#0 179527904#1 508099915#0 508099915#1 258979265#0 258979265#1 628505597 165849631 1055826508 1062460664 387015255 4220893#0 255393423 165849627#0 165849627#1 165849627#2 165849627#3 165849627#7 165849627#8 165849627#9 376865290#1 300034825 472148300 867790499#0 867790499#1 253488980 253488984 204400292 251109201 187060050#2 781345962 300035524 150857432#2 93785423 253488957#0 253488944 94586305 500261498 94586298 500261497 150837582#1 150837582#2 150837582#3 185579896#0 185579896#1 53175059#1 1081335276 187061084 187061084.80 E18_y E18.17 93785348 55608997 190463206#1 95170275 95170275.39 93785463#0 93785463#0.10 93785463#0.22 93785463#1 190458990#0 151788685 269017597#0 269017597#1 1085759979#0 1085759979#1 1085759979#3 1085759981#0"/>
    </vehicle>
    <vehicle id="bike25" type="bike_bicycle" depart="125.00" departLane="best">
        <route edges="-79058578#0 102688443 79058578#1 -58127003#1 -58127003#0 320222738#1 31648322#1 31648322#2 31648189 320240823 31648190#0 556415248 -556415248 -31648190#0"/>
    </vehicle>
    <vehicle id="bike26" type="bike_bicycle" depart="130.00" departLane="best">
        <route edges="-366073489#2 -366073489#1 24532464#1 366073468#1 366073469#1 366073470#1 366073467#1 150851814#4 150851814#5 366073485#1 240348395#0 240348395#1 240348395#2 240348395#3 240348395#4 240348395#5 240348395#6 240348395#7 500527046#1 175580620#0 53175062#0 127607593 192428989 7656757"/>
    </vehicle>
    <vehicle id="bike27" type="bike_bicycle" depart="135.00" departLane="best">
        <route edges="24532431#1 24532431#3 366073451#1 366073453#1 366073452#1 431557289#1 24620443#0 404190177#1 404190176 8067184#0 53175165 53175164#0 53175164#2 188462504 8067182#1 8067182#2 389119564#1 183656812 29336163 779043553#1 -334457597#2 -334457597#1 -334457597#0 -334457596 24608228"/>
    </vehicle>
    <vehicle id="bike28" type="bike_bicycle" depart="140.00" departLane="best">
        <route edges="-254952128 -254952129#1 -254952124#5 254952126 254952122#1 46022237#0 44828761#2 44828761#3 44828761#5 270684579 22763251#0 22763251#1 22763251#2 22763251#5 -253488970#1 -253488970#0 -253488973#1 -253488968 -190462985 190462984#0 53573995#2 189764669#0 35951506#1 35951506#3 193582128#0 193582128#1 193582128#2 366073488#0 366073488#1 431557293#0 431557293#2 40521208#1 431557291 40521205#0 150834642#1 108404027#2 108404027#3 108404027#4 208424708 -313209997#1 309693140"/>
    </vehicle>
    <vehicle id="bike29" type="bike_bicycle" depart="145.00" departLane="best" departSpeed="max">
        <route edges="-252932197#1 -252932197#0 32280972#1 121805100 E0_vu3 E1_vu3 -E8_vu3 E7_vu3 -360787852#3 -360787852#2 -360787852#0 -5475488#1 23137790#2 150543795 56186952 922053740 35134167#0 35134167#2 35134167#3 276412885 276412658 189877634#0 96747828#0 56185651#3 226991208#0 228126461#1 462537200#1 462537200#1.25 249375697#1 269040901#1 189772874#0 190451914#1 251106575 251103977#0 251103977#0.17 -127606907#3 -127606907#2 -127606907#1 -127606907#0 -189032455 189032455 127606907#0"/>
    </vehicle>
    <vehicle id="bike30" type="bike_bicycle" depart="150.00" departLane="best">
        <route edges="97301282#0 97301282#1 97301282#2 258979265#0 258979265#1 628505597 165849631 1055826508 1062460664 387015255 4220893#0 255393423 165849627#0 165849627#1 165849627#2 165849627#3 165849627#7 165849627#8 165849627#9 376865290#1 300034825 472148300 867790499#0 867790499#1 253488980 253488984 204400292 251109201 187060050#2 781345962 300035524 150857432#2 93785423 253488957#0 253488944 94586305 500261498 94586298 500261497 150837582#1 150837582#2 150837582#3 185579896#0 185579896#1 53175059#1 1081335276 187061084 187061084.80 E18_y E18.17 93785348 55608997 95170292#1 95170292#2 190462985 253488968 253488973#1 253488970#0 253488970#1 4400845#0 4400845#1 4400845#3 4400845#4 4400845#5 4400845#6 4400845#7 -270684579 44827812#1 44827812#3 44827812#4 44827812#5 44827812#6 -44828412#5 -44828412#4 -44828412#3 -254957236#3 254957236#3"/>
    </vehicle>
    <vehicle id="bike31" type="bike_bicycle" depart="155.00" departLane="best">
        <route edges="190443683#2 38152916#1 38152916#2 38152916#3 24620443#0 -431557293#2 -431557293#0 -366073487 -366073488#0 -193582128#2 -193582128#1 -193582128#0 35951507#1 150893564#2 189764998 189764999#0 189764716#0 189764716#1 189764717#0 190463206#1 95170275 95170275.39 93785463#0 93785463#0.10 93785463#0.22 93785463#1 190458990#0 151788685 269017597#0 269017597#1 1085759979#0 1085759979#1 1085759979#3 1085759981#0 1085759981#1 190458063 27244834#1 -27244834#1 151791264#1 151791264#2 151791264#3 151791264#4 151791264#5 27245133#0 27245133#1 27245134#0"/>
    </vehicle>
    <vehicle id="bike32" type="bike_bicycle" depart="160.00" departLane="best">
        <route edges="389119567#1 253539339#0 253539339#1 253539339#2 253539339#3 253539339#4 350679381 323017515 4432610#4 4432610#5 4432610#6 -364071765#1 -364071765#0 -4248376 4248376 364071765#0"/>
    </vehicle>
    <vehicle id="bike33" type="bike_bicycle" depart="165.00" departLane="best" departSpeed="max">
        <route edges="-306035262 360037729#1 306029385#0 306029385#1 306032429 -40586130#3 -40586130#2 -40586130#1 -40586130#0 -35014373#3 -35014373#1 -35014373#0 -739924926 -31648190#1 -31648190#0 -402016793 -31648189 128081143 320235813#0 320239492#1 -104363155#1 24377359 56185654 56185655#0 56185655#1 189776524 56454445 187057791#0 187057791#1 187057791#2 5475488#1 360787852#0 360787852#2 360787852#3 -E7_vu3 E8_vu3 121805095 32280972#3 121805105#0 121805105#1 -150393270#14 121805110 -150393267#10 -150393267#9 -150393267#8 -150393267#7"/>
    </vehicle>
    <vehicle id="bike34" type="bike_bicycle" depart="170.00" departLane="best">
        <route edges="-4492379#1 -4492379#0 -502060954 -502060955#1 -502060955#0 -150697173#2 -150697173#1 366073489#3 366073490#1 366073490#2 366073490#3 230602997#0 230602997#0.14 230602997#1 230602997#2 366073486 282331232#0 282331232#1 203461111 203461112#1 149996793 251158323 251158322#1 548514765 228126460#0 316778911#1 287186149#1 251161865#1 -97301278#2 -97301289#2 -97301289#1 -39698436 -33205876#0 -255894041#0 778989042#0 102985399#0 102985399#2 -429065350#1"/>
    </vehicle>
    <vehicle id="bike35" type="bike_bicycle" depart="175.00" departLane="best">
        <route edges="-27870084#0 -638123367#2 -638123367#1 -638123367#0 -53573984#3 -53573984#2 4400844#0 270684576#0 270684576#1 270684579 22763251#0 22763251#1 22763251#2 22763251#5 -253488970#1 -253488970#0 -253488973#1 -253488968 -190462985 190462984#0 53573995#2 189764669#0 35951506#1 35951506#3 193582128#0 193582128#1 193582128#2 366073488#0 366073488#1 431557293#0 431557293#2 40521208#1 431557291 40521205#0 40521205#1 366073489#1 366073489#2 366073489#3 366073490#1 366073490#2 366073490#3 230602997#0 230602997#0.14 230602997#1 230602997#2 366073486 282331232#0 282331232#1 203461111 203461112#1 230602993 190438083#1 404599856 255225031#3 404599855#1 404599857#0 404599857#1 404599857#2 387015293#0 387015293#1 387015293#2 387015293#3 387015293#4 409702805 409702804 191003930#0 150556234#1 165823636 227062816 165828294#0 150554195#2 150554195#3 28143932 89478024#0 89478024#1 89478026#0 -179527904#2 -150546877#2 -150546877#1 -436096921#1 -674274748 23137793#3 23137793#4 7942136#0"/>
    </vehicle>
    <vehicle id="bike36" type="bike_bicycle" depart="180.00" departLane="best">
        <route edges="43702375#3 43702375#4 43702375#5 -43702375#0 33083419#2 43703049 898486014#1 190443688#0 898480456 898465326#0 190443836 898484255 898484254 898459770 189769943#0 269040917#0 127607225#2 127607225#3 23567306#1 269040899 251158323 251158322#1 548514765 228126460#0 316778911#1 287186149#1 251161865#1 -97301278#2 -97301289#2 -97301289#1 -39698436 -33205876#0 -255894041#0 718155368#1 -718155368#1"/>
    </vehicle>
    <vehicle id="bike37" type="bike_bicycle" depart="185.00" departLane="best">
        <route edges="24608195#1 -24608195#1 -24608195#0 95170291#4 253488954#0 53175163#1 253488943 253488947 253488948 253488950#0 93785434 112562464 46967473 502060953#0 502060953#1 420551407#0 182065983#1 53175058 315426061 315426062 150000852 404599856 255225031#3 404599855#1 404599857#0 404599857#1 404599857#2 387015293#0 387015293#1 387015293#2 387015293#3 387015293#4 409702805 409702804 191003930#0 150556234#1 165823636 227062816 165828294#0 581663849 190431168#1 190431168#2 190431168#3 227062818#1 227062818#3 227062818#4 227062813#0 227062813#1 227062813#2 227062813#3 258979261 -142259576#3 -142259576#2 142259576#2"/>
    </vehicle>
    <vehicle id="bike38" type="bike_bicycle" depart="190.00" departLane="best">
        <route edges="502060953#0 4248376 364071765#0 364071765#1 4432610#1 4432610#3 4432610#4 -150663778 -24470235 24909174#3 24909174#4 24909174#7 134394675#0 169690075 169690117"/>
    </vehicle>
    <vehicle id="bike39" type="bike_bicycle" depart="195.00" departLane="best">
        <route edges="-36475788#0 35899849#0 -87712941#1 -87712941#0 27134344#0 96747828#0 56185651#3 226991208#0 228126461#1 462537200#1 462537200#1.25 249375697#1 269040901#1 189772874#0 190451409 269040904 230602993 190438083#1 269040907#0 269040907#1 149899941 -27391708#0 -300068767#3 -300068767#2 -300068767#1 -300068767#0 103864417#0 79683427#1 79683428 79683429 358953094 376865396#0 376865396#1 376865396#2 376865396#3 376865396#4 -376865396#4"/>
    </vehicle>
    <vehicle id="bike40" type="bike_bicycle" depart="200.00" departLane="best">
        <route edges="191003931#1 227062816 165849631 1055826508 1062460664 387015255 4220893#0 255393423 165849627#0 165849627#1 165849627#2 165849627#3 165849627#7 165849627#8 165849627#9 376865290#1 300034825 472148300 867790499#0 867790499#1 253488980 253488984 204400292 251109201 187060050#2 781345962 -924549199 -313209997#1 -313209997#0 890797552#0 890797552#1 108404033#2 -366073490#2 -366073490#0 -366073489#2 -366073489#1 -366073489#0 -40521205#0 -431557291 -40521208#1 -431557293#2 -431557293#0 -366073487 -366073488#0 -193582128#2 -193582128#1 -193582128#0 35951507#1 25890650#1 249461334#4 253488996 253488994 175558035#1 420551654 420551663 27246283#0 27246283#1 420551633#0 -420551633#0"/>
    </vehicle>
    <vehicle id="bike41" type="bike_bicycle" depart="205.00" departLane="best">
        <route edges="213560194 219005862 148357184#0 148357184#1 219005866#1 219005866#2 219005865#1 148357182#8 148357182#9 24685067 213712045 218303471#1 -214586680 210362483#0 210362483#1 209308036 209308037#0 209308037#1 209308037#2 209308037#3 209308037#4 205759812 28646387#0 28646387#1 28646387#2 28646387#3 215971171#0 215971171#1 150893550#1 945388804 999859779#1 53175067#0 53175067#1 53175067#2 53175067#3 53175067#4"/>
    </vehicle>
    <vehicle id="bike42" type="bike_bicycle" depart="210.00" departLane="best">
        <route edges="-958718218 24608196#5 -1101639846#1 53175161 185576374#0 108404025#0 108404027#0 108404027#1 108404027#2 -150697173#1 366073489#3 366073490#1 366073490#2 366073490#3 230602997#0 230602997#0.14 230602997#1 230602997#2 366073486 -366073486 24666916 366073460#3 17977155#0 17977155#1 191128493#0 -339381133"/>
    </vehicle>
    <vehicle id="bike43" type="bike_bicycle" depart="215.00" departLane="best">
        <route edges="E6_vu3 E8_vu3 121805095 32280972#3 32280972#4 32280972#5 38141820 121805098#1 121805098#2 371574650 371573876#0 371573876#1 371573876#2 371573876#3 371573876#4 371573876#5 -232947460 -232947463#2 -232947463#1 -232947463#0 -232947458#0 -128783418#0 231387753#1 -193326803#0 193326803#0"/>
    </vehicle>
    <vehicle id="bike44" type="bike_bicycle" depart="220.00" departLane="best">
        <route edges="-192398367#0 -33083419#2 -33083419#1 240348395#5 240348395#6 24532391#1 366073472#1 366073473#1 24532428#1 24532348#1 -208424711#1 -208424711#0 -150857993#2 -150857993#1 -150857993#0 253488999#2 253488999#3 -43866170#1 -43866170#0 -43866169#0 -33083987#0 -33083988#1 -33083988#0 -151785743#1"/>
    </vehicle>
    <vehicle id="bike45" type="bike_bicycle" depart="225.00" departLane="best">
        <route edges="-215925952 215925959#1 41270994#5 18639552#8 18639552#9 18639552#10 18639552#11 -227695408#3 E22_y8 E14.14 Emkebike15 Emkbike15.14 14189039#0 14189039#1 14189039#2 221260831 190348536#0 5475849#1 182826554 27247873 27247875 25890468 25890467 127608716 192428988#0 192428988#2 4082985#0 253488995 189765126#0 189765126#1 189765125#0 189765125#1 189765125#2 253488997#1 150857995#0 253488999#0 253488999#1 253488999#2"/>
    </vehicle>
    <vehicle id="bike46" type="bike_bicycle" depart="230.00" departLane="best">