<?xml version="1.0" encoding="UTF-8"?>

<!-- generated on 2023-03-06 16:03:26.029658 by randomTrips.py v1_14_1+0000-f654d7b963e
<configuration>
    <end value="3600"/>
    <max-distance value="2000.0"/>
    <net-file value="osm.net.xml"/>
    <pedestrians value="True"/>
    <period value="6.0"/>
    <route-file value="osm.pedestrian.rou.xml"/>
    <output-trip-file value="osm.pedestrian.trips.xml"/>
    <prefix value="ped"/>
    <validate value="True"/>
    <vehicle-class value="pedestrian"/>
</configuration>
-->

<!-- generated on 2023-03-06 16:03:23 by Eclipse SUMO duarouter Version 1.14.1
<configuration xmlns:xsi="http://www.w3.org/2001/XMLSchema-instance" xsi:noNamespaceSchemaLocation="http://sumo.dlr.de/xsd/duarouterConfiguration.xsd">

    <input>
        <net-file value="osm.net.xml"/>
        <route-files value="osm.pedestrian.trips.xml"/>
    </input>

    <output>
        <output-file value="osm.pedestrian.rou.xml"/>
        <alternatives-output value="NUL"/>
    </output>

    <time>
        <begin value="0"/>
        <end value="3600"/>
    </time>

    <report>
        <no-warnings value="true"/>
        <ignore-errors value="true"/>
        <no-step-log value="true"/>
    </report>

</configuration>
-->

<routes xmlns:xsi="http://www.w3.org/2001/XMLSchema-instance" xsi:noNamespaceSchemaLocation="http://sumo.dlr.de/xsd/routes_file.xsd">
    <vType id="ped_pedestrian" vClass="pedestrian"/>
    <person id="ped0" type="ped_pedestrian" depart="0.00">
        <walk edges="268931658 218778912 227992740#10 227992740#9 227992740#7 227992740#6 227992740#4 227992740#3 269040907#1 269040907#0 190438083#1 230602993 114395974#0 -139692075#0 -139692115#6 -139692115#5"/>
    </person>
    <person id="ped1" type="ped_pedestrian" depart="6.00">
        <walk edges="349836788 349836791 44882264 -27261757#2 -27261757#3 262140928 28297618#0 28297618#1 502060953#0 502060953#1 420551407#0 182065983#1 246584302#0 246584302#2 500582850 500582851#0 500582851#1 1038224266#0 1038224266#1 255389622#0 255389622#1 255389622#2 255389622#3 255389622#4 255389622#6 255389622#7 255389622#8 255389621#0 255389621#1 1055823709#1 279980676"/>
    </person>
    <person id="ped2" type="ped_pedestrian" depart="12.00">
        <walk edges="53175159#2 53175159#1 53175159#0 1101405927#2 1101639846#1 122500706#5 53175163#1 253488943 253488947 253488948 253488950#0 93785434 112562464 -284813741#1 762607046#1 762607046#0 -39316795#4 -39316795#5 39316795#6 228002788 227992741#5 227992741#4 227992741#3 -79683431#1 190438079#0 190438083#1 230602993 114395974#0 -139692075#0 -139692115#6 139692115#6 -269029116#0 85619555 116638554#1 85619563#12 85619563#13 85619563#14 85619563#15 85619563#0 276261571#0 276261571#1 276261571#2 276261571#3 276261571#4 276261571#5 276261571#6 276261571#7 276261571#8 276261571#9 276261571#10 276261571#11 276261571#12 276261571#13 276261571#14 276261571#15 163318242 1034914721 429065350#0 -429065350#1 373426448#2 373426448#1 218025853#2 218025853#1 148357184#0 283344054 148359952#1 42465494 218303447 -219005867#1 1027090960 1020928335 -216146981#1 -216146981#2"/>
    </person>
    <person id="ped3" type="ped_pedestrian" depart="18.00">
        <walk edges="165069584 -165069586#3 -165069586#2 -165069586#1 -165069586#0 -360248206#1 -360248206#2 -150547351#0 -150547351#1 -150547351#2 -150547351#3 -150549253#4.62 -150549253#4.18 -150549253#4"/>
    </person>
    <person id="ped4" type="ped_pedestrian" depart="24.00">
        <walk edges="-420551633#1 420551633#0 -27246283#1 -27246283#0 320170488 -420551654 175558035#1 253488995 189765126#0 221186723#3 221186723#2 221186723#1 189765125#1 189765125#2 253488997#1 189764998 53573995#2 55608997 93785348 E18.17 E20_y9 204976967 191640848#0 E21_y E19_y 95170298 269017594.14 269017594.12 163419806#0 208426933#1 208426933#0"/>
    </person>
    <person id="ped5" type="ped_pedestrian" depart="30.00">
        <walk edges="-149942614#1 102486913#1 102486913#0 -268931675#1 -364071765#0 -4248376 179531919 39316795#1 -39316795#2 -39316795#3 762607046#0 762607046#1 284813738#7 284813738#6 284813738#5 253488944 94586305 500261498 94586298 500261497 150837582#1 150837582#2 150837582#3 185579896#0 185579896#1 53175059#1 1081335276 187061084 187061084.80 E18_y E20_y9 204976967 496347543 -1085755482 -27418199#0 -39003298#0 -374615109"/>
    </person>
    <person id="ped6" type="ped_pedestrian" depart="36.00">
        <walk edges="27244032 319269730#0 -178081204 178081206 -27244031 61917693#0 -61917693#1 61917693#2 -61917693#3 -96105766 -881002401#0 881002401#1 1085755481#1 -39003298#1 -27418199#0 -1085755482 496347543 204976967 E20_y9 E18_y 187061084.80 187061084 1081335276 53175059#1 185579896#1 185579896#0 150837582#3 150837582#2 150837582#1 500261497 94586298 500261498 94586305 253488944 284813738#5 284813738#6 284813738#7 762607046#1 762607046#0 -39316795#4 -39316795#5 39316795#6 228002788"/>
    </person>
    <person id="ped7" type="ped_pedestrian" depart="42.00">
        <walk edges="-420551649 -27246283#1 -27246283#0 320170488 -420551654 175558035#1 253488995 189765126#0 221186723#3 221186723#2 221186723#1 189765125#1 189765125#2 253488997#1 150857995#0 253488999#0 253488999#1 253488999#2 300050618#1 300050620#1 -43866170#0 185581648#0 185581649#1 149352823#1 185580084#0 185580084#1 185582454#0 185582454#1 185580050#0 185580050#1 53175159#5 -53175159#4 185578149#4 185578149#3 185578378#2 185578150#0 185578023#2 185578023#1 185578023#0 24608208#0 24608208#1 210586818#1 253538766#2 172808776#1 174380944#1 25099320#15 25099320#14 25099320#13 25099320#12 60169830#2 25099321#3 25099321#2 25099321#1 315933981#1 315933981#0 25099320#3 25099320#2 300056816#2 300056816#1 300056816#0 53016881#2 53016881#1 182761571 182761579 182761572 -334457597#1 -334457597#0 -334457596 24608228"/>
    </person>
    <person id="ped8" type="ped_pedestrian" depart="48.00">
        <walk edges="401214865 -401214867#1 -270905181#1 270905181#0 270905166#6 -270905166#2 -270905166#1 270866224#4 -711528929#0 130292995#3 -130292995#2 -360248197#0 -105605386"/>
    </person>
    <person id="ped9" type="ped_pedestrian" depart="54.00">
        <walk edges="397714305#0 -185574410#0 150695575#1 169689583#5 169689622#0 334457598#0 334457598#3 162767752 169684595#5 169684595#6 169684595#7 182761579 182761571 53016881#1 300056810"/>
    </person>
    <person id="ped10" type="ped_pedestrian" depart="60.00">
        <walk edges="122000766#0 -69727096 -8601802#1 -23137781 -227062817 -150554190#2 -150554190#1 -150554190#0 -89478026#1 -89478024#1 -89478024#0 -28143932"/>
    </person>
    <person id="ped11" type="ped_pedestrian" depart="66.00">
        <walk edges="854917825 -776213517#1 -776213517#0 442545004#1 205880175#2 205880175#1 205880175#0 229619684 162754862#2 162754862#0 150741844 217382713#3 217382713#2 217382713#1 520824524#3 520824524#2 520824524#1 520824524#0 473947957#0 217493751 217493746 -207766373 257676226#1 257676226#0 -867872497 388280855#4 373426448#1 373426448#2 -429065350#1 429065350#0 1034914721 163318242 276261571#15 276261571#14 276261571#13 276261571#12 276261571#11 276261571#10 276261571#9 276261571#8 276261571#7 276261571#6 276261571#5 276261571#4 276261571#3 276261571#2 276261571#1 276261571#0 85619563#0 85619563#15 85619563#14 85619563#13 85619563#12 116638554#1 85619555 -269029116#0 139692115#6 139692115#5 454541479 1098919000#5 454541477 1098919000#2 454541481 335986848#2 230991290#0 251158322#1 548514765 228126460#0 23055276#1 119894682"/>
    </person>
    <person id="ped12" type="ped_pedestrian" depart="72.00">
        <walk edges="40103022 254362612 215971174#1 215971174#0 215971175#2 215971175#1 -39649662#0 -39649662#1 -39649662#2 -215971171#0 207636690#0 207636690#1 215925850#1 215925850#2 215925852#1 18639552#7 -41270994#5 41270994#5 18639552#8 18639552#9 18639552#10 18639552#11 -227695408#3 349775080#1 349775081#0 349775081#2 349775081#3 349775079#2 598266300#0 251816566#4 251816566#3 251816566#2 251816566#1 251816566#0 25586776 5475849#1 182826554 -27247879 24856083 736523878 150857526#6 150857526#5 -150857526#4 -150857526#3 175552322 130540645#1 4082065#1 4082065#0 -130540643 175563641#0 -175563641#1 -175558914#2 -175558914#4 -175558914#5 -175558914#6 -175558914#8 -175558914#9 336500791"/>
    </person>
    <person id="ped13" type="ped_pedestrian" depart="78.00">
        <walk edges="227062816 165823636 150556234#1 -1064398602#0 1064398602#1 1055826509 126749717#6 92156243#1 92156252 92156235#2 92156235#1 92156235#0 92156235#9 92156263 92156253#3 126752282#1 126752282#0 En15 -246581466 -165849626 -255389621#3 4404115#0 4404115#1 4404115#2 4432605 320630988#0 320630988#1 903554045"/>
    </person>
    <person id="ped14" type="ped_pedestrian" depart="84.00">
        <walk edges="150694609 -319999605#7 898539695 305869959#1 102486913#3 102486913#1 102486913#0 80599432#2 -80599555#0 218778912 246584302#0 246584302#2 500582850 500582851#0 500582851#1 1038224266#0 1038224266#1 255389622#0 255389622#1 255389622#2 255389622#3 255389622#4 255389622#6 255389622#7 255389622#8 -255389621#0 -255389621#1 -255389621#2 -255389621#3 -165849626 -246581466 En15 126752282#0 126752282#1 92156253#3 92156263 92156235#9 92156235#0 92156235#1 92156235#2 92156252 92156243#1 126749717#6 1055826509 1064398602#1 -1064398602#0 150556234#1 -165823636 -227062822#0 402835262#0 402835262#1 24448883#1 402835260 359726683#2 -8601803 8601802#1 216879574#6 216879574#5 216879574#4 216879574#3 -216879574#2 8601421#0 8601421#1 23137793#4"/>
    </person>
    <person id="ped15" type="ped_pedestrian" depart="90.00">
        <walk edges="42465480 24685065 217400437#1 150743092 1064383441#5.9 206972904 -206972905 206833543 40104609#7 40104609#6 40104609#5 40104609#4 40104609#3 254498204"/>
    </person>
    <person id="ped17" type="ped_pedestrian" depart="102.00">
        <walk edges="-210582468#7 -210582468#8 27244260#0 27244260#1 27244260#2 27244839#0 38435460 61917008 69723500#0 69723500#1 38435467#1 69722210 69721870#2 69722361#1 69722361#0 69721724#1 69721724#0 -69851767 -69851762#0 1085755481#1 -39003298#1 -39003298#0 -E1_y E1_y -37681849#3 -374616071#1 -43791945#0 48244149 -43791944#1 -43791944#0 350576238#4 350578025#0 350578025#1 44828761#3 -46022433 44827812#4 44827812#5 44827812#6 -44828412#5"/>
    </person>
    <person id="ped18" type="ped_pedestrian" depart="108.00">
        <walk edges="-232947463#1 232947458#1 232947436 232947441 232947451 -101134190#1 162513821 94563904 94563903 232479211#1 94563907 27134174 -86202842"/>
    </person>
    <person id="ped19" type="ped_pedestrian" depart="114.00">
        <walk edges="267411754#4 457490366#1 768475541 768475540 768475539 267411769#1 103176668#1 103176668#0 255391114#0 475679571#0 475679571#3 402016820#0 187060058#0 187628761#0 187628761#1 143384152 163960493#2 163960493#1 143384153"/>
    </person>
    <person id="ped20" type="ped_pedestrian" depart="120.00">
        <walk edges="27134173 162513819 162513813 94991331 -27134177 -27134342 -27134351#0 -27134351#1 162513832#1 162513832#0 -94991330#2 -191128496 165825315#0 -165825315#1 27134345 -35899849#0 -87712941#1 -156279478#1 -216928701 156279645#0 457856892 863026952#0 729932388#0 287186163#1 287186163#0 107085666 -107085646#1 -107085646#0 -387015293#2 -387015293#1 -387015293#0 404599857#2 404599857#1 404599857#0 404599855#1 255225031#3 299661657 -299661658#1 477577590 -190434614 -253488980 -253488984 227992740#3 227992740#4 227992740#6 227992740#7 227992740#9 227992740#10 218778912 -80599555#0 80599432#2 102486913#0 102486913#1 -149942614#1 -149942614#0 -4432610#5 -4432610#4 -323017515 -319999605#5 319999605#4 167786680 253539339#3"/>
    </person>
    <person id="ped21" type="ped_pedestrian" depart="126.00">
        <walk edges="-319999605#4 -319999605#5 -323017515 -4432610#4 -4432610#5 -149942614#0 -149942614#1 102486913#1 102486913#0 80599432#2 -80599555#0 218778912 227992740#10 227992740#9 227992740#7 227992740#6 227992740#4 227992740#3 269040907#1 269040907#0 190438083#1 230602993 114395974#0 139692099#3 139692108#2 335980510#2"/>
    </person>
    <person id="ped22" type="ped_pedestrian" depart="132.00">
        <walk edges="-300068767#5 -300068767#6 -300068767#7 -300068767#8 103939334#1 103939334#0 103864420 45151540#1 103939341 531717063 39317358#3 39317358#2 39316799 179531919 4248376 364071765#0 364071765#1 4432610#1 4432610#3 -323017515 -319999605#5 319999605#4 167786680 39634561 150694611#5 150694611#6 150694611#7"/>
    </person>
    <person id="ped23" type="ped_pedestrian" depart="138.00">
        <walk edges="97301289#1 -97301289#0 -121797366 35154749 96747824 97301278#0 -97301278#2 7980446#1 7980446#2 7980446#3 7980446#4 107085648#0 107085648#1 -107085648#2 26602743#0 107085658#0 -409702805 -409702804 107085662#0 107085662#1 107085662#2 107085662#3 126749717#0 126752282#5 126752282#4 126752282#3 126752282#2 126752282#1 126752282#0 En16 150554187 E13_n5 -E11_n5 E6_n5 5073612#1 -358953088#1 -358953088#0 -358953079 358953100#0 358953096 165823634#1.7 E4_n2 268931671"/>
    </person>
    <person id="ped24" type="ped_pedestrian" depart="144.00">
        <walk edges="232947458#1 128783418#1 128783418#0 231387753#1 -193326803#0 102345553 -33178511#4 254235292#0 254235292#1 254235292#2 -102345555#1 -254235295 33178508#3 33178508#4 33178508#5 33178508#6 33178510 296483833 33177578#0 33177578#1 33177578#2 223969439#1 216146980#1 226872065#10 226872065#9 226872065#8 226872065#7 226872065#6 226872065#5 226872065#4 226872065#3 226872065#1 216128753#0 216128751 216128752 205759801#1 205422863#1 -29504037 872973889 203502996 39649666 215925850#1 215925850#2 28646388#3"/>
    </person>
    <person id="ped25" type="ped_pedestrian" depart="150.00">
        <walk edges="443046537#5 136019455#0 136019455#1 En7 27391712#2 27391712#1 27391712#0 -165849627#9 -165849627#8 165849627#8 136531186#0 299639054 376865290#1"/>
    </person>
    <person id="ped26" type="ped_pedestrian" depart="156.00">
        <walk edges="-4432606#10 -4432606#11 -4432606#12 231285503#2 231285503#3 -1055823708#2 -1055823708#1 -1055823708#0 150554192#1 5097830#0 -150554193#4 -150554193#3 -150554193#2 -150554193#1 -150554193#0 -150554198#9 -150554198#8 -150554198#7"/>
    </person>
    <person id="ped27" type="ped_pedestrian" depart="162.00">
        <walk edges="-39649666 39649666 203502996 872973889 -29504037 205422863#1 205759801#1 216128752 216128751 216128753#0 226872065#1 226872065#3 226872065#4 226872065#5 226872065#6 226872065#7 226872065#8 226872065#9 226872065#10 226872065#11 216146979 -219005867#0 -219005867#1 -219005868#0 -996858589 -219005869 718155368#1 -255894041#0 -33205876#0 -39698436 -385966815 385966815 -97301289#0 -121797366 35154749 96747824 97301278#0 -97301278#2 7980446#1 7980446#2 7980446#3 7980446#4 -107085645 -107085658#2 773744301"/>
    </person>
    <person id="ped28" type="ped_pedestrian" depart="168.00">
        <walk edges="499675996#3 499675999 -190340310#0 -150549242#1 -150549242#0 -999862407 -320252634#12 -320252634#11 -320252634#10 -320252634#9 -320252634#8 221181601#1 -320252634#3 -320252634#2 -320252634#1 -320252634#0 -265910769 395673319 104363156#1 143144842 143144847 457490372#3 457490372#2 457490372#1 457490372#0 142254213#0 142254213#1 739649183#1 102688851 -739653275 -409702806#1 -438279356 179527904#0 179527904#1 150554190#0 150554190#1 150554190#2 227062817 227062822#2 227062822#1 227062822#0 165823636 150556234#1 1064398602#0"/>
    </person>
    <person id="ped29" type="ped_pedestrian" depart="174.00">
        <walk edges="27244832#12 -27244842 -27244832#8 -27244832#7 -27244832#6 27244834#1 -151791264#1 -151791264#2 151791264#3"/>
    </person>
    <person id="ped30" type="ped_pedestrian" depart="180.00">
        <walk edges="64973069#3 -64973069#1 -64973069#0 -163861180#0 114460695 295296441#7 234811865#3 234811865#2 234811865#1 172808755#6 27409014#3 27409014#2 27409014#1 27409014#0 27387547#3 27387547#2 53018573#1 53018573#0 27409072 174381136#13 174381136#12 174381136#11 174381136#10 174381136#9 174381136#8 174381136#7 174381135#6 174381135#5 174381135#4 308382720 -134397922#0 606150185#1 183657245#3 183657245#2 183657245#1"/>
    </person>
    <person id="ped31" type="ped_pedestrian" depart="186.00">
        <walk edges="235389175#1 236993238#2 236993238#1 236993238#0 235389174#4 235389174#2 235389174#1 235391910#0 235391910#1 235391910#2 123554988#0 229239405 -351669230#2 -351669230#1 -351669230#0 -572415628 134393406 572415636 134393405 -572415638 -690790196"/>
    </person>
    <person id="ped33" type="ped_pedestrian" depart="198.00">
        <walk edges="E7_y 175586471 175580619#1 -240348395#7 24532391#1 210082253 366073475#8 366073475#7 366073475#6 366073475#5 366073475#4 366073475#1 366073484#1 245939113#3 245939113#2 245939113#1 208424706 -366073486 -282331232#0 282331232#1 203461111 190817398#1 35953671#0 190438079#0 190438083#1 211731682"/>
    </person>
    <person id="ped34" type="ped_pedestrian" depart="204.00">
        <walk edges="-219005869 718155368#1 -255894041#0 -33205876#0 -39698436 -385966815 385966815 -97301289#0 -121797366 25873469#7 25873469#8 25873469#9 251162032#0 226991208#0 -251158909#1 -107085654#0 -107085654#1 -107085654#2 -387015293#1 -387015293#0 404599857#2 404599857#1 404599857#0 404599855#1 255225031#3 299661657 -299661658#1 477577590 -190434614 -253488980 -253488984 227992740#2 227991193#1 300077796 -300068767#5 -300068767#6 -300068767#7 -300068767#8 103939334#1 103939334#0 103864420 45151540#1 103939341 531717063 39317358#3 39317358#2 39316799 179531919 502060953#0 28297618#1 28297618#0 262140928 24534243#1 24534243#0 24470190#1 24470190#0 -502060954 -4492379#0 -4492379#1 -163773296#3"/>
    </person>
    <person id="ped35" type="ped_pedestrian" depart="210.00">
        <walk edges="-240679945#0 -240679935#0 -240679935#1 -240679935#2 -240679893 150896688#0 140547856 -140547860#2 240679941#5 -240679941#4 -240679941#3 -240679941#2 -240679941#0 175558914#12 175558914#13 175564779#0 35951506#1 35951506#3 193582128#0 193582128#1 193582128#2 366073488#0 366073488#1 -431557293#0 -431557293#2 -40521208#1 -431557291 -40521205#0 -366073489#0 -366073489#1 -366073489#2 -366073490#0 -366073490#2 -366073490#3 230602997#0 230602997#0.14 230602997#1 230602997#2 24666916 150770615#1 24922594#0 -154656276#2 127607225#3 23567306#1 269040899 -139692075#0 -139692115#6 139692115#6 -269029116#0 85619555 116638554#1 85619563#12 85619563#13 85619563#14 85619563#15 85619563#0 276261571#0 276261571#1 276261571#2 276261571#3 276261571#4 276261571#5 276261571#6 276261571#7 276261571#8 276261571#9 276261571#10 276261571#11 276261571#12 276261571#13 276261571#14 276261571#15 163318242 1034914721 429065350#0 -429065350#1 373426448#2 373426448#1 388280855#4 -867872497 257676226#0 257676226#1 -207766373 217493746 217493751 473947957#0 440834670#0 440834670#1 440834669#1 749486251#1 584126367#0 257675380#1"/>
    </person>
    <person id="ped36" type="ped_pedestrian" depart="216.00">
        <walk edges="39316795#1 179531919 502060953#1 420551407#0 182065983#1 246584302#0 246584302#2 500582850 500582851#0 500582851#1 1038224266#0 1038224266#1 255389622#0 255389622#1 255389622#2 255389622#3 255389622#4 255389622#6 255389622#7 255389622#8 255389621#0 255389621#1 1055823709#1 279980676 -279980680 4404115#2 1055823708#3 1055823708#2 1055823708#1 1055823708#0 150554192#1 5097830#0 -150554193#4 -150554193#3 -150554193#2 -150554193#1 -150554193#0 -150554198#9 -150554198#8 -150554198#7 -150554198#6 -150554198#5 -150554198#4 -150554198#3 -150554198#2 -165343934 165343935 -165069586#0 165069586#1"/>
    </person>
    <person id="ped37" type="ped_pedestrian" depart="222.00">
        <walk edges="901506733#1 901506733#0 287186163#1 287186149#1 316778911#1 228126460#0 548514765 251158322#1 230991290#0 335986848#2 454541481 1098919000#2 454541477 1098919000#5 454541479 139692115#5 139692115#6 -269029116#0 85619555 116638554#1 85619563#12 85619563#13 85619563#14 85619563#15 85619563#0 461153870"/>
    </person>
    <person id="ped38" type="ped_pedestrian" depart="228.00">
        <walk edges="-108404028 -364080659#0 -364080659#1 -364080660#0 -364080660#1 24532297#1 24532297#0 150694624#4 150694624#3 150694624#2 150694624#1 -150694624#0 4432610#3 4432610#4 -150663778 141608502 -24909174#4 39647700 39647541 41806586 -690873738 -79721420#0 53040718#3 -164092564 24533443#1 -164092489#0 164092973#4 -150694607#1 -235391298 -269001615#1 235391500#0 325363712 325363711#1"/>
    </person>
    <person id="ped39" type="ped_pedestrian" depart="234.00">
        <walk edges="284813738#3 93785434 112562464 -284813741#1 762607046#1 762607046#0 -39316795#3 -39316795#2 39316795#1 179531919 502060953#1 420551407#0 182065983#1 246584302#0 246584302#2 500582850 500582851#0 500582851#1 1038224266#0 1038224266#1 255389622#0 255389622#1 255389622#2 255389622#3 255389622#4 255389622#6 255389622#7 255389622#8 -255389621#0 -255389621#1 -255389621#2 -255389621#3 -165849626 -En1 -En0 -190431168#0 -190431168#1 -190431168#2 -190431168#3 461176705#1 461176705#2 -360248187#3 -360248187#4 -360248187#5 -360248187#6 -360248187#7 227062821#1 227062821#0"/>
    </person>
    <person id="ped40" type="ped_pedestrian" depart="240.00">
        <walk edges="-739924927#2 -739924927#0 -739924928#1 -739924928#0 -739924926 -31648190#1 -556415248 556415249 -556415252#1 -556415252#0 -556415251 -556415253 395978345#1 -79058578#1 102686306 102686303#1 255391114#0 258979261 227062813#3 227062813#2 142259808#0 142259811#0 164861749 142259810#2 142259810#3 150554198#1 -165343934 165343935 -360248206#1 -360248206#2 -187628738#0 -47214333#4 131229614#0 -114323879#0 -114323879#1 -114323879#2 -114323879#3 -360248211#2 105605386 105611252 4420854#0 195130785#1 268931687"/>
    </person>
    <person id="ped41" type="ped_pedestrian" depart="246.00">
        <walk edges="-24470195#1 -27315337 -27315344#0 -27315344#1 95170291#1 724854350#1 185580051#1 185580051#0 53175159#1 185578023#4 185578023#3 185578023#2 185578023#1 185578023#0 24608208#0 24608208#1 210586818#1 253538766#1 27417758 188464150#8 25099322#0 25099322#1 25099322#2 172808772 163417000#5 163417000#4 163417000#3 163416998#0 163416998#1 172808749"/>
    </person>
    <person id="ped42" type="ped_pedestrian" depart="252.00">
        <walk edges="180598060#8 165849627#8 -165849627#8 -165849627#9 -376865290#1 -300034825 -472148300 -867790499#0 -190434614 -253488980 -253488984 227992740#2 227992740#1 -227992739#0 458894790 39318100#4 39318100#3 39318100#2 39318100#1 39318100#0 39654314#0 39654313 -39316795#5 -39316795#4 762607046#0 762607046#1 -284813741#1 112562464 93785434 253488950#0 253488948 253488947 253488943 53175163#1 253488954#0 95170291#4 95170291#3 843681076#1 843681078#1"/>
    </person>
    <person id="ped43" type="ped_pedestrian" depart="258.00">
        <walk edges="1012829104#1 134424676#3 237278681#2 116299042 -121817387#2 121817387#3 -842454221 -572415628 -351669230#0 -351669230#1 -351669230#2 229239405 123554988#0 235391910#2 235391910#1 235391910#0 235389174#1 235389174#2 235389174#4 235389174#5 229239402 229239400 164088760#6 325369110#4 659292417#0 659292417#1 4404114#0 268877847"/>
    </person>
    <person id="ped44" type="ped_pedestrian" depart="264.00">
        <walk edges="253539339#1 163773315#1 150694896#2 150694896#1 53016881#0 182761571 182761579 182761572 -334457597#1 -27287268"/>
    </person>
    <person id="ped45" type="ped_pedestrian" depart="270.00">
        <walk edges="360248215#1 -360248215#0 -107337519 227062820#1 227062820#0 -190431168#3 -29065540#0 -31045126#1 -359726683#0 -359726683#1 402835260 53106999#1 402835263#1 402835261 165825876 463427429#1 95704789 -87712921#2 -87712921#1 -35134173#2 35134173#1 -227441536#0 227441543 227441540 227441550#1 227441537 227441552#1 227441541"/>
    </person>
    <person id="ped46" type="ped_pedestrian" depart="276.00">
        <walk edges="376865396#0 -358953110#0 376865391 376865382 227991190#2 227992740#9 227992740#7 227992740#6 227992740#4 227992740#3 269040907#1 269040907#0 190438083#1 230602993 114395974#0 -139692075#0 -139692115#6 139692115#6 -269029116#0 85619555 116638554#1 85619563#12 85619563#13 85619563#14 85619563#15 85619563#0 276261571#0 276261571#1 276261571#2 276261571#3 276261571#4 276261571#5 276261571#6 276261571#7 276261571#8 276261571#9 276261571#10 276261571#11 276261571#12 276261571#13 276261571#14 276261571#15 163318242 1034914721 429065350#0 -429065350#1 373426448#2 373426448#1 218025853#2 218025853#1 148357184#0 148357184#1 219005866#1 219005866#2 723599390#10 723599390#0 213712045 218303471#1 33083417 217400447 211994457#1 211994459#0 211994459#1 150771745 209308037#0 209308037#1 209308037#2 209308037#3 209308037#4 -205759801#1 -24554287 -24841247#0 24841247#1 223139847"/>
    </person>
    <person id="ped47" type="ped_pedestrian" depart="282.00">
        <walk edges="-129556171 129556178#3 -129556178#2 129556178#1 350576236#1 350576236#0 -43791944#0 -43791944#1 48244149 -43791945#0 -374616071#1 -37681849#3 E1_y -E1_y -39003298#0 -27418199#0 -1085755482 496347543 204976967 E20_y9 E18_y 187061084.80 187061084 1081335276 53175059#1 185579896#1 185579896#0 150837582#3 -27315344#0 724854349#0"/>
    </person>
    <person id="ped48" type="ped_pedestrian" depart="288.00">
        <walk edges="502060954 24470190#0 24470190#1 24534243#0 24534243#1 262140928 28297618#0 28297618#1 502060953#0 179531919 39316799 39317358#2 39317358#3 531717063 103939341 45151540#1 103864420 103939334#0 103939334#1 -300068767#8 -300068767#7 -300068767#6 -300068767#5 300077796 227991193#1 227992740#2 -253488984 -253488980 -190434614 477577590 -299661658#1 299661657 255225031#3 404599855#1 404599857#0 404599857#1 404599857#2 -387015293#0 -387015293#1 107085654#2 107085654#1 107085654#0 251158909#1 431889849#3 431889849#1"/>
    </person>
    <person id="ped49" type="ped_pedestrian" depart="294.00">
        <walk edges="1034914721 163318242 276261571#15 276261571#14 276261571#13 276261571#12 276261571#11 276261571#10 276261571#9 276261571#8 276261571#7 276261571#6 276261571#5 276261571#4 276261571#3 276261571#2 276261571#1 276261571#0 85619563#0 85619563#15 85619563#14 85619563#13 85619563#12 116638554#1 85619555 -269029116#0 139692115#6 -139692115#6 -139692075#0 269040899 23567306#1 127607225#3 -154656276#2 24922594#0 150770615#1 24666916 230602997#2 230602997#1 230602997#0.14 230602997#0 -366073490#3 -366073490#2 -366073490#0 -366073489#2 -366073489#1 -366073489#0 -40521205#0 -431557291 -40521208#1 -431557293#2 -431557293#0 366073488#1 366073488#0 193582128#2 193582128#1 193582128#0 35951506#3 35951506#1 175564779#0 175558914#13 -175563728#4"/>
    </person>
    <person id="ped50" type="ped_pedestrian" depart="300.00">
        <walk edges="500582851#0 500582850 246584302#2 246584302#0 187060055 628505595#0 -628505595#1 187060053#0 268931652 4084166 268931665 268931664#1 237278282#3 168216714 -171452572#1 -79721497#1 79721420#1"/>
    </person>
    <person id="ped51" type="ped_pedestrian" depart="306.00">
        <walk edges="-215971175#1 207220342 207220344 205759812 209308037#4 209308037#3 209308037#2 209308037#1 209308037#0 150771745 211994459#1 211994459#0 211994457#1 217400447 33083417 218303471#1 213712045 723599390#0 723599390#10 219005866#2 219005866#1 148357184#1 148357184#0 218025853#1 218025853#2 373426448#1 373426448#2 -429065350#1 429065350#0 1034914721 163318242 276261571#15 276261571#14 276261571#13 276261571#12 276261571#11 276261571#10 276261571#9 276261571#8 276261571#7 276261571#6 276261571#5 276261571#4 276261571#3 276261571#2 276261571#1 276261571#0 85619563#0 85619563#15 85619563#14 85619563#13 85619563#12 116638554#1 85619555 -269029116#0 139692115#6 -139692115#6 -139692075#0 269040899 23567306#1 127607225#3 -154656276#2 24922594#0 150770615#1 24666916 230602997#2 230602997#1 230602997#0.14 230602997#0 -366073490#3 -366073490#2 -366073490#0 -366073489#2 -366073489#1 -366073489#0 -40521205#0 -431557291 -40521208#1 -431557293#2 -431557293#0 366073488#1 366073488#0 193582128#2 193582128#1 190812637#1"/>
    </person>
    <person id="ped52" type="ped_pedestrian" depart="312.00">
        <walk edges="-191128494 E2 -385966809#1 729928231#1 23055403#2 23055403#1 316778911#1 287186149#1 251161865#1 7980446#1 7980446#2 7980446#3 7980446#4 -107085645 -107085650 -107085649#1 -97301277#0 -191003929 402835261 402835263#1 53106999#1 402835260 -359726683#1 -227062822#2 -227062817 -150554190#2 -150554190#1 -150554190#0 -89478026#1 -89478024#1 -89478024#0 360248187#7 360248187#6 360248187#5"/>
    </person>
    <person id="ped53" type="ped_pedestrian" depart="318.00">
        <walk edges="364080659#0 108404028 253488943 253488947 253488948 253488950#0 93785434 112562464 -284813741#1 762607046#1 762607046#0 -39316795#3 -39316795#2 39316795#1 179531919 502060953#1 420551407#0 182065983#1 246584302#0 246584302#2 500582850 500582851#0 500582851#1 1038224266#0 1038224266#1 255389622#0 255389622#1 255389622#2 255389622#3 255389622#4 255389622#6 255389622#7 255389622#8 -255389621#0 -255389621#1 -255389621#2 -255389621#3"/>
    </person>
    <person id="ped54" type="ped_pedestrian" depart="324.00">
        <walk edges="188287272 24532297#0 150694624#4 150694624#3 150694624#2 150694624#1 150694624#0 4432610#1 4432610#6 -149942614#0 -149942614#1 102486913#1 102486913#0 -5730410#1 -103901277#0 227992740#13 227991190#0 300077795 -300068767#1 -300068767#2 200715611 200715613 230571249#0 230571244"/>
    </person>
    <person id="ped55" type="ped_pedestrian" depart="330.00">
        <walk edges="-69851760#0 -69851761 -27260400#3 27245675 27245677#4 869733315 1085759979#1 1085759979#0 377905809#4 269017600#0 163474879#3 163474879#4 203652797#1 496350066"/>
    </person>
    <person id="ped56" type="ped_pedestrian" depart="336.00">