<?xml version="1.0" encoding="UTF-8"?>

<!-- generated on 2023-03-06 16:04:13.068186 by randomTrips.py v1_14_1+0000-f654d7b963e
<configuration>
    <end value="3600"/>
    <fringe-factor value="5.0"/>
    <fringe-start-attributes value="departSpeed=&quot;max&quot;"/>
    <min-distance value="600.0"/>
    <net-file value="osm.net.xml"/>
    <period value="3.0"/>
    <route-file value="osm.truck.rou.xml"/>
    <trip-attributes value="departLane=&quot;best&quot;"/>
    <output-trip-file value="osm.truck.trips.xml"/>
    <prefix value="truck"/>
    <validate value="True"/>
    <vclass value="truck"/>
    <vehicle-class value="truck"/>
</configuration>
-->

<!-- generated on 2023-03-06 16:04:12 by Eclipse SUMO duarouter Version 1.14.1
<configuration xmlns:xsi="http://www.w3.org/2001/XMLSchema-instance" xsi:noNamespaceSchemaLocation="http://sumo.dlr.de/xsd/duarouterConfiguration.xsd">

    <input>
        <net-file value="osm.net.xml"/>
        <route-files value="osm.truck.trips.xml"/>
    </input>

    <output>
        <output-file value="osm.truck.rou.xml"/>
        <alternatives-output value="NUL"/>
    </output>

    <time>
        <begin value="0"/>
        <end value="3600"/>
    </time>

    <report>
        <no-warnings value="true"/>
        <ignore-errors value="true"/>
        <no-step-log value="true"/>
    </report>

</configuration>
-->

<routes xmlns:xsi="http://www.w3.org/2001/XMLSchema-instance" xsi:noNamespaceSchemaLocation="http://sumo.dlr.de/xsd/routes_file.xsd">
    <vType id="truck_truck" vClass="truck"/>
    <vehicle id="truck0" type="truck_truck" depart="0.00" departLane="best" departSpeed="max">
        <route edges="1081335277 -1081335277 151785742#0 53573995#2 189764669#0 249461334#1 249461334#4 253488996 253488994 35951977#0 35951977#1 127608718#0 127608718#1 251816580 189765373 189765377 175588575#0 53175062#0 127607593 192428989 7656757 27247877 251816561 251816565#0 25586776 251816566#0 251816566#1 251816566#2 251816566#3 251816566#4 598266300#0 380637201 23148901#0 23148901#1 23148901#2 466081172 466082124 466081173#0 466081173#1 -442545005"/>
    </vehicle>
    <vehicle id="truck1" type="truck_truck" depart="3.00" departLane="best">
        <route edges="320252634#10 -320252634#10 -320252634#9 -320252634#8 -320252634#5 -320252634#3 -320252634#2 -320252634#1 -320252634#0 -265910769 320222738#1 320256282 320239492#0 320239492#1 -104363155#1 24377359 56185654 56185655#0 56185655#1 189776524 56454445 187057791#0 187057791#1 187057791#2 23137790#2 150543795 56186952 922053740 35134167#0 35134167#2 35134167#3 276412885 276412658 189877634#0 96747828#0 56185651#3 226991208#0 228126461#1 462537200#1 462537200#1.25 249375697#1 269040901#1 189772874#0 190451914#1 251106575 251106198#0 269040918 251106111#0 189032454 269040914 898416659 269040916 190446522 190446521#2 190443686 190443685 189768761 189768759 127607180#0 175586471 175586471.19 251816582#2 251816583#3 251816583#3.6 4082985#0 253488995 189765126#0 189765126#1 189765125#0 189765125#1 189765125#2 27245988#1 -175558914#13 -175558914#12 -175558914#10 -175558914#9 -175558914#8 -175558914#6 -175558914#5 -175558914#4 -175558914#2 -175558914#1 -175558914#0 -410592139 -130540643 4082065#0 4082065#1 130540639#2.9 175553114 -270684568#9 -270684568#8 -270684568#7 -270684568#6 -270684568#5 -270684568#4 -270684568#3 -270684568#2 -270684568#0 270684568#0 270684568#2 270684568#3 270684568#4 270684568#5 270684568#6 270684568#7 270684568#8 270684568#9 130540617 175553144 270666286#0 270666286#1"/>
    </vehicle>
    <vehicle id="truck2" type="truck_truck" depart="6.00" departLane="best">
        <route edges="468844962 358953091#0 358953091#1 358953086 97301275#0 97301292#1 360248182#0 360248182#2 165823635 626345991 181337926#0 181337926#1 548514763#0 189876499 160173625 360785921#0 360785921#1 5111851 360785920#0 190340308 E2_vu3 E3_vu3 E4_vu3 399741671 471554672 184227241#0 184227241#1 184227241#2 184227241#4 292947985 184227242 25586697 812970254#0 172336783#0 270655622 251816537 71256192 251816540 223859972 251816539 251816541 227205268#1 227205269 227205269.83 251816590 -285011811#1 251816548 227205258#1 229619678#0 229619678#1 229619682#0 229619682#1 229591994#0 229619684 205880175#0 205880175#1 205880175#2 205103380#0 205103380#1 205103380#2 205103380#3 40438279#0 37825125#6 206576555#0 206576555#1 206306024 207220344 207220342 215971175#1 215971175#2 215971174#0 -215971174#0"/>
    </vehicle>
    <vehicle id="truck3" type="truck_truck" depart="9.00" departLane="best">
        <route edges="175580620#0 53175062#0 127607593 192428989 7656757 27247877 251816561 251816565#0 5475849#1 155860730#1 155860730#2 155860733#5 155860749 227205259#0 196832679 223859973 251816578 251816579 223845140 403293876 184156802#0 376865249#0 376865249#1 150395806 172333242 22763330#0 172336685 -270655645#1 -270655645#0 -371573876#7 -371573876#6 -371573876#5 -371573876#4 -371573876#3 -371573876#2 -371573876#1 -371573876#0 -371574650 -121805098#2 -121805098#1 121805099 32280972#1 32280972#2 32280972#3 121805105#0 121805105#1 -150393270#14 121805110 -150393267#10 -150393267#9 -150393267#8 -150393267#7 -150393267#6 -150393272#2 -150393272#1 -150393272#0"/>
    </vehicle>
    <vehicle id="truck4" type="truck_truck" depart="12.00" departLane="best">
        <route edges="-150393269#0 150393267#9 150393267#10 121805106 150393270#14 121805107#0 121805107#1 121805107#2 32280972#5 32280972#0 32280972#1 121805100 E0_vu3 E1_vu3 -E8_vu3 E7_vu3 -360787852#3 -360787852#2 -360787852#0 -5475488#1 23137790#2 150543795 56186952 922053740 35134167#0 35134167#2 35134167#3 276412885 276412658 189877634#0 96747828#0 56185651#3 226991208#0 228126461#1 462537200#1 462537200#1.25 249375697#1 269040901#1 189772874#0 190451409 269040904 230602993 190438083#1 269040907#0 269040907#1 149899941 253488977#0 42760138 149904354 460396653 218778912 268931658 42760136 268931654#1 42760135#2 42760135#3 880134845 305869959#1 898539695 -319999605#7 -319999605#6 -319999605#5 -364080661"/>
    </vehicle>
    <vehicle id="truck5" type="truck_truck" depart="15.00" departLane="best">
        <route edges="258979265#0 258979265#1 628505597 165849631 1055826508 1062460664 -1055826509 -1064398602#1 -1064398602#0 -43578399#1 -43578399#0 189877848 96747828#0 56185651#3 226991208#0 228126461#1 462537200#1 462537200#1.25 161847018#1 432348155 404599857#0 404599857#1 404599857#2 23055466#0 23055466#1 23055466#3 23055466#4 23055466#5"/>
    </vehicle>
    <vehicle id="truck6" type="truck_truck" depart="18.00" departLane="best">
        <route edges="-40438279#0 -205103380#3 -205103380#2 -205103380#1 -205103380#0 442545004#1 442545005 23148902#0 23148902#3 23148902#6 23148902#7 23148902#8 466077685 466077684#1 380637204 380637205#0 E22_y8 E23_y8 EMk3 EMk4 39381687#1 39381687#1.4 39381687#2 39381687#3 39381687#4 39381687#5 39381687#6 39381687#7 251816568 190348536#0 5475849#1 182826554 27247873 27247875 25890468 25890467 127608716 192428988#0 192428988#2 4082985#0 253488995 189765126#0 189765126#1 24573650#0 24573650#2 24573650#3"/>
    </vehicle>
    <vehicle id="truck8" type="truck_truck" depart="24.00" departLane="best">
        <route edges="376865411#2 778989041 270655647 8611973 270655650 270655653 270655651 270655622 251816537 71256192 251816540 223859972 251816539 251816541 227205268#1 227205269 227205269.83 251816590 -285011811#1 285011811#0"/>
    </vehicle>
    <vehicle id="truck9" type="truck_truck" depart="27.00" departLane="best">
        <route edges="150549253#0 150549253#1 150549253#3 150547351#4 150547351#5 320185500#0 320185500#1 270655640 270655641 189899508 360065008 268931672#0 268931670 268931671 268931671.29 4235244 999614640 164095588#2 305325048#0 305325048#0.14 305325046 305325049#0 305325049#1 305325049#2 236994807 236994808 252024823#0 252024823#2 268931656 236995001 268931659#0 4084166 268931652 187060053#0 187060055 53175058 315426061 315426062 204400292 251109201 187060050#2 781345962 300035524 150857432#2 93785423 253488957#0 253488944 94586305 500261498 94586298 500261497 150837582#1 150837582#2 150837582#3 185579896#0 185579896#1 53175059#1 1081335276 187061084 187061084.80 187061084.80.24 151785784#0 151785784#0.3 151785784#0.10 151785784#1 151785784#2 253489003 253489002#2 29020152 169603172#0 4082946#1 129556185 183972017 53573984#2 53573984#3 638123367#0 638123367#1 638123367#2 27870084#0 27870084#1 27870084#2 -27870084#2"/>
    </vehicle>
    <vehicle id="truck10" type="truck_truck" depart="30.00" departLane="best">
        <route edges="8601802#1 8601803 150556230#1 191003929 181337926#0 181337926#1 548514763#0 189876499 160173625 360785921#0 360785921#1 5111851 360785920#0 190340308 E2_vu3 E3_vu3 E4_vu3 399741671 190340312 216879571 674280493 102774826 102749569 4474685 85287424 187060058#0 187060058#3 187060057#0 42760132 371300204#0 190032739 371300202 35925380#1 35925380#2 -35834157#2 -35834157#1 150549249#0"/>
    </vehicle>
    <vehicle id="truck11" type="truck_truck" depart="33.00" departLane="best">
        <route edges="-216879574#6 -216879574#5 -216879574#4 -216879574#3 -216879574#2 -216879574#1 56454445 187057791#0 187057791#1 187057791#2 471554672 184227241#0 184227241#1 184227241#2 184227241#4 292947985 184227242 25586697 812970254#0 172336783#0 270655622 251816537 71256192 251816540 223859972 251816539 251816541 227205268#1 227205269 227205269.83 251816590 -285011811#1 251816548 251820257 531113640 897661486 -603995680 -531113646 -364560741 -440604787#1 -440604787#0 -369239271#3 -369239271#2 -369239271#1 24439717 206972904 214251574 210441951#1 210362487 -218279122"/>
    </vehicle>
    <vehicle id="truck12" type="truck_truck" depart="36.00" departLane="best">
        <route edges="409287503 424501493#0 531114769 -217493751 217493751 473947957#0 440834670#0 440834670#1 440834669#1 440834669#2 309717596#1 309717596#2 309717596#3 531113643 251816543 229621539#0 227205254#1 227205254#1.11 251816547 597172848 121541411#0 121541411#1 155860744 155860740 155860733#3 171935245#0 171935245#1 171935245#2 251816561 251816565#0 5475849#1 182826554 27247873 27247875 25890468 25890467 127608716 192428988#0 192428988#2 4082985#0 253488995 189765126#0 189765126#1 189765125#0 189765125#1 189765125#2 253488997#1 189764998 189764669#0 249461334#1"/>
    </vehicle>
    <vehicle id="truck13" type="truck_truck" depart="39.00" departLane="best">
        <route edges="377905808#0 377905808#2 377905809#0 377905809#2 377905809#3 377905809#3.32 377905809#4 269017600#0 269017600#1 163419805#0 163419805#2 163419466#0 163419466#1 163419466#3 163419466#4 163419466#7 185352101 208426931 319999605#1"/>
    </vehicle>
    <vehicle id="truck14" type="truck_truck" depart="42.00" departLane="best">
        <route edges="227205269.83 251816590 155860727#0 155860727#1 155860727#2 155860741#1 155860733#1 155860733#2 155860733#3 171935245#0 171935245#1 171935245#2 251816561 251816565#0 5475849#1 182826554 27247873 27247875 25890468 25890467 127608716 192428988#0 192428988#2 4082985#0 253488995 189765126#0 189765126#1 189765125#0 189765125#1 189765125#2 253488997#1 189764998 189764999#0 189764716#0 189764716#1 189764717#0 190463206#1 95170275"/>
    </vehicle>
    <vehicle id="truck15" type="truck_truck" depart="45.00" departLane="best">
        <route edges="155860727#1 155860727#2 155860741#1 155860733#1 155860736 -155860744 -778982229#0 -121541411#0 -597172848 251816548 227205258#1 229619678#0 229619678#1 229619682#0 229619682#1 229591994#0 229619684 205880175#0 205880175#1 205880175#2 442545004#1 442545005 23148902#0 23148902#3 23148902#6 23148902#7 23148902#8"/>
    </vehicle>
    <vehicle id="truck16" type="truck_truck" depart="48.00" departLane="best">
        <route edges="39816394 431889849#0 431889849#1 431889849#3 228126461#1 462537200#1 462537200#1.25 249375697#1 269040901#1 189772874#0 190451914#1 251106575 251106198#0 269040918 251106111#0 189032454 269040914 898416659 269040916 190446522 190446521#2 190443686 190443685 189768761 189768759 127607180#0 175586471 175586471.19 251816582#2"/>
    </vehicle>
    <vehicle id="truck17" type="truck_truck" depart="51.00" departLane="best">
        <route edges="432348158 432348156 255225445#0 230602993 190438083#1 269040907#0 269040907#1 204400292 251109201 187060050#2 781345962 300035524 150857432#2 93785423 253488957#0 253488944 94586305 500261498 94586298 500261497 108404025#0 108404025#1 -24534083#3 -24534083#2 -150857994#2 24532348#0"/>
    </vehicle>
    <vehicle id="truck18" type="truck_truck" depart="54.00" departLane="best">
        <route edges="28874733#1 29065540#0 -150554195#2 -150554195#1 97301292#1 1055826508 1062460664 -1055826509 -1064398602#1 -1064398602#0 -43578399#1 -43578399#0 189877848 96747828#0 56185651#3 226991208#0 228126461#1 462537200#1 462537200#1.25 249375697#1 269040901#1 189772874#0 190451914#1 251106575 251106198#0 269040918 251106111#0 189032454 269040914 898416659 269040916 190446522 190446521#2 190443686 190443685 189768761 189768759 127607180#0 175586471 175586471.19 251816582#2 251816583#3 251816583#3.6 4082985#0 253488995 189765126#0 189765126#1 24573650#0 24573650#2 24573650#3 46963142#1 46963142#3 190812637#1 -150857993#2 -150857993#1"/>
    </vehicle>
    <vehicle id="truck19" type="truck_truck" depart="57.00" departLane="best">
        <route edges="-442749531 -269017588#4 -269017588#3 -269017588#1 -532149775#2 -532149775#1 -532149775#0 -134396877 779043553#0 779043553#1 779043553#2 779043553#3 188462687#0 208426931 319999605#1 319999605#4 319999605#5 319999605#6 319999605#7 4084169 150663777 237278283 237278282#3 268931664#1 268931665 4084166 268931652 187060053#0 187060055 53175058 315426061 315426062 150000852 189773010#0 149996793 190451914#1 251106575 251103977#0 251103977#0.17 -127606907#3 -127606907#2 -127606907#1 -127606907#0 -189032455 189032455 127606907#0"/>
    </vehicle>
    <vehicle id="truck20" type="truck_truck" depart="60.00" departLane="best">
        <route edges="-210362483#1 -210362483#0 -210362484 -210441951#0 -206972905 -217382714 369239271#1 369239271#2 369239271#3 440604787#0 440604787#1 364560741 531113646 531113643 251816543 229621539#0 227205254#1 227205254#1.11 251816547 597172848 121541411#0 121541411#1 155860744 155860740 155860733#3 171935245#0 171935245#1 171935245#2 251816561 251816565#0 5475849#1 182826554 27247873 27247875 25890468 25890467 127608716 192428988#0 192428988#2 4082985#0 253488995 189765126#0 189765126#1 189765125#0 189765125#1 189765125#2 253488997#1 150857995#0 253488999#0 253488999#1 253488999#2 253488999#3 149352823#0 149352823#1 185580084#0 185580084#1 95170297#0 53175060#1 24549659 97142258 -53175159#4 -53175159#3 -53175159#2 -53175159#1 -53175159#0"/>
    </vehicle>
    <vehicle id="truck21" type="truck_truck" depart="63.00" departLane="best">
        <route edges="-219005868#0 219005868#0 219005868#1 219005869 -718155368#1 -694345941#2 24685085 280873251#0 206777521#1 23566451#0 23566451#1 335986848#2 230991290#0 269040901#1 189772874#0 190451409 269040904 230602993 190438083#1 269040907#0 269040907#1 204400292 251109201 187060050#2 781345962 300035524 150857432#2 93785423 253488957#0 253488944 94586305 500261498 94586298 500261497 53175165 53175164#0 24534170#1 208426932#1 1101639892#1"/>
    </vehicle>
    <vehicle id="truck22" type="truck_truck" depart="66.00" departLane="best">
        <route edges="255389622#0 255389622#1 255389622#2 255389622#3 255389622#4 255389622#6 255389622#7 255389622#8 23263249#0 23263249#1 4403852#1 4403852#2 4403852#3 4403852#4 628505595#0 187060055 53175058 315426061 315426062 204400292 251109201 187060050#2 781345962 300035524 150857432#2 93785423 253488957#0 253488944 94586305 500261498 94586298 500261497 150837582#1 150837582#2 150837582#3 185579896#0 185579896#1 -185580084#1 -185580084#0 -149352823#1 -149352823#0 -253488999#3 -253488999#2 150857993#0"/>
    </vehicle>
    <vehicle id="truck23" type="truck_truck" depart="69.00" departLane="best">
        <route edges="107085648#0 107085648#1 107085648#2 26602743#1 107085646#1 107085666 287186163#0 287186163#1 226991208#0 228126461#1 462537200#1 462537200#1.25 249375697#1 269040901#1 189772874#0 190451914#1 251106575 251106198#0 269040918 251106111#0 189032454 269040914 898416659 269040916 190446522 190446521#2 190443686 190443685 189768761 189768759 150853632 189765883#0 127607593 192428989 7656757 27247877 251816561 251816565#0 25586776 251816566#0 251816566#1 251816566#2 251816566#3 251816566#4 598266300#0 380637201 23148901#0 23148901#1 23148901#2 466081172 23148902#6 -215925852#1 -215925852#0 -215925850#1 -215925850#0 -207636690#0 215971171#0 215971171#1 150893550#1 945388804 999859779#1 53175067#0 53175067#1 644550372#0"/>
    </vehicle>
    <vehicle id="truck24" type="truck_truck" depart="72.00" departLane="best">
        <route edges="25890468 25890467 199383409#2 251816560#0 35951977#1 127608718#0 127608718#1 251816580 189765373 189765377 53175063#0 150851811#2 898486015 898486014#0 898486014#1 190443688#0 898480456 898465326#0 190443836 898484255 898484254 898459770 189769943#0 269040917#0 127607225#2 154656276#2 24922594#0 948937425#2 948937423 203461111 203461112#1 149996793 190451914#1 251106575"/>
    </vehicle>
    <vehicle id="truck25" type="truck_truck" depart="75.00" departLane="best">
        <route edges="-315426060#0 315426060#0 315426060#2 315426060#3 779043553#0 779043553#1 779043553#2 779043553#3 188462687#0 208426931 319999605#1 319999605#4 319999605#5 319999605#6 319999605#7 4084169 150663777 237278283 237278282#3 268931664#1 268931665 4084166 268931652 187060053#0 187060055 53175058 315426061 315426062 150000852 189773010#0 149996793 251158323 251158322#1 548514765 228126460#0 316778911#1"/>
    </vehicle>
    <vehicle id="truck26" type="truck_truck" depart="78.00" departLane="best">
        <route edges="-30057718#2 -30057718#1 -30057718#0 -53175069#3 -53175069#2 -53175069#1 -53175069#0 -415123460#3 -415123460#2 -415123460#1 -415123460#0 945388804 999859779#1 53175067#0 53175067#1 53175067#2 53175067#3 53175067#4 EMk3 EMk4 39381687#1 39381687#1.4 39381687#2 39381687#3 39381687#4 39381687#5 39381687#6 39381687#7 251816568 190348536#0 5475849#1 155860730#1 155860730#2 155860733#5 155860733#0 155860733#1 155860733#2"/>
    </vehicle>
    <vehicle id="truck27" type="truck_truck" depart="81.00" departLane="best">
        <route edges="E15.10 93785463#0.22 93785463#1 190458990#0 151788685 163440758 42760868 269017594 269017594.12 269017594.14 95170298 E19_y E19.26_y 191640848#0.11 191640848#1 95170263#0 53175060#1 53175060#2 724854350#0 724854350#1 95170291#1 95170291#3 95170291#4 253488954#0 53175163#1 253488943 253488947 253488948 253488950#0 93785434 112562464 46967473 502060953#0 502060953#1 420551407#0 182065983#1 246584302#0 246584302#2 500582850 500582851#0 500582851#1 1038224266#0 1038224266#1 255389622#0 255389622#1 255389622#2 255389622#3 255389622#4 255389622#6 255389622#7"/>
    </vehicle>
    <vehicle id="truck28" type="truck_truck" depart="84.00" departLane="best">
        <route edges="235391020#0 235391020#1 235391022 396381365 235389907 235389906 235389908#0 269001612#2 269001612#3 269001612#4 269001612#5 235390248#0 235390248#1 305325046 305325049#0 305325049#1 305325049#2 236994807 236994808 252024823#0 252024823#2 268931656 236995001 268931659#0 4084166 268931652 187060053#0 187060055 53175058 315426061 315426062 204400292 251109201 187060050#2 781345962 300035524 150857432#2 93785423 253488957#0 253488944 94586305 500261498 94586298 500261497 150837582#1 150837582#2 150837582#3 185579896#0 185579896#1 53175059#1 1081335276 187061084 187061084.80 E18_y E18.17 93785348 55608997 190463206#1 95170275 95170275.39 93785463#0 93785463#0.10 93785463#0.22 27245673#1 27245673#2 27245673#3 27245673#4 27245673#5 27245673#6 27245673#7 27245673#8"/>
    </vehicle>
    <vehicle id="truck29" type="truck_truck" depart="87.00" departLane="best">
        <route edges="40586130#1 40586130#2 40586130#3 306029384 306032457 360037734#0 360037734#1 360037734#2 -31648289 -164506584#1 -164506584#0 182489957#0 182489957#1 182489957#2 930192518 -371306931 -999862406 -190340310#0 376849860#1 -114928357 114928360#1 376846888 402016776 40584784 187060049#0 187060049#1 561882212 115738329#0 29350090 320207734 320202776 150546874#1 402016791 320210276 7972298 739653275 409702806#1 438279356 179527904#0 179527904#1 508099915#0 508099915#1 258979265#0 258979265#1 628505597 165828294#0 581663849 360248203#1 360248203#2"/>
    </vehicle>
    <vehicle id="truck30" type="truck_truck" depart="90.00" departLane="best">
        <route edges="-4492379#1 -364080659#1 -364080659#0 -108404028 253488943 253488947 253488948 253488950#0 93785434 112562464 46967473 502060953#0 502060953#1 420551407#0 182065983#1 218778912 268931658 42760136 268931654#1 147683979#0 147683979#2 269001617 269001621#3 269001620#0 269001619#0 692648169#0 692648168#2 692648168#4 268931655#0 183629216#0 204207294 315426064 150549933#0 164086589 164086593 45085542#0 268931673#1 270655631 270655638 220911179 189899976 561882213#0 561882213#1 320185059 190022224#1 115738329#0 29350090 320207734 320202776 150546874#1 402016791 320210276 7972298 739653275 409702806#1 438279356 179527904#0 -150546877#2 -150546877#1 -150546877#0"/>
    </vehicle>
    <vehicle id="truck31" type="truck_truck" depart="93.00" departLane="best">
        <route edges="149951200#1 -149951200#1 -149951202#7 -149951202#6 -149951202#5 -149951202#4 -149951202#3 -149951202#2 -149951202#1 -149951202#0 -35014371#5 -35014371#4 -35014371#3 -35014371#0 -739924928#1 -739924928#0 -739924926 -31648190#1 -31648190#0 -402016793 -31648189 128081143 320235813#0 320239492#1 -104363155#1 24377359 56185654 56185655#0 56185655#1 189776524 56454445 187057791#0 187057791#1 187057791#2 23137790#2 150543795 56186952 922053740 35134167#0 35134167#2 35134167#3 276412885 276412658 189877634#0 404477284#1 107085649#1 107085644 107085662#0 107085662#1"/>
    </vehicle>
    <vehicle id="truck32" type="truck_truck" depart="96.00" departLane="best">
        <route edges="-385970247#1 190443836 898484255 898484254 898459770 189769943#0 269040917#0 127607225#2 127607225#3 23567306#1 269040899 251158323 251158322#1 548514765 228126460#0 316778911#1 287186149#1 251161865#1 781419324 404599852 404599853 251157594 548514764#2 548514763#0 189876499 160173625 360785921#0 360785921#1 5111851 360785920#0 190340308 E2_vu3 E3_vu3 E4_vu3 399741671 190340312 216879571 674280493 102774826 102749569 359947001 187057793#0 190340309 31648322#0 31648322#1 31648322#2 31648189 320240823 31648190#0 31648190#1 739924926"/>
    </vehicle>
    <vehicle id="truck33" type="truck_truck" depart="99.00" departLane="best">
        <route edges="442749533 183654631 269017585 23263282 235390974 235391021 235391020#0 235391020#1 235391022 396381365 235389907 235389906 235389908#0 269001612#2 269001612#3 269001612#4 269001612#5 235390248#0 235390248#1 183629216#0 204207294 315426064 150549933#0 164086589 164086593 45085542#0 268931673#1 270655631 270655638 220911179 189899976 561882213#0 561882213#1 320185059 190022224#1 115738329#0 29350090 320207734 27283179#0 27283179#1 -320252634#2 -320252634#1 -320252634#0 -265910769 320222738#1 31648322#1 31648322#2 31648189 320240823 31648190#0 31648190#1 739924926 739924928#0 739924928#1 35014371#0 35014371#3 35014371#4 35014371#5 149951202#0 149951202#1 149951202#2 149951202#3"/>
    </vehicle>
    <vehicle id="truck34" type="truck_truck" depart="102.00" departLane="best">
        <route edges="268931664#1 268931665 147683979#0 147683979#2 269001617 269001621#3 269001620#0 269001619#0 692648169#0 692648168#2 692648168#4 268931655#0 183629216#0 204207294 315426064 150549933#0 164086589 164086593 45085542#0 268931673#1 270655631 270655638 150549493#0 150549493#1 150549493#2 -305829911#1 -305829911#0 -182489865 182489859 229917857#1 182489863 190340311 164506584#0 164506584#1"/>
    </vehicle>
    <vehicle id="truck35" type="truck_truck" depart="105.00" departLane="best">
        <route edges="53175067#4 EMk3 EMk4 E19_y8 E21_y8 380637201 23148901#0 23148901#1 23148901#2 466081172 466082124 466081173#0 466081173#1 -442545005 -442545004#1 -205880175#2 -205880175#1 -205880175#0 205988835 254497023 224883546 229679020 251820258 199831388 199831388.17 229619681#1 251816552 227205263 196832679 223859973 251816578 251816579 223845140 403293876 184156802#0 376865249#0 376865249#1 150540310 150540315 184156817 184156816 184156815 5466445#0 190340312"/>
    </vehicle>
    <vehicle id="truck36" type="truck_truck" depart="108.00" departLane="best">
        <route edges="107085644 191003930#0 -43578399#1 -43578399#0 189877848 96747828#0 56185651#3 226991208#0 228126461#1 462537200#1 462537200#1.25 249375697#1 269040901#1 189772874#0 190451409 269040904 230602993 190438083#1 269040907#0 269040907#1 204400292 251109201 187060050#2 781345962 -924549199"/>
    </vehicle>
    <vehicle id="truck37" type="truck_truck" depart="111.00" departLane="best">
        <route edges="238870175#1 941558922 -967938217 -385970247#2 -385970247#1 190443836 898484255 898484254 898459770 189769943#0 269040917#0 127607225#2 127607225#3 23567306#1 269040899 251158323 251158322#1 548514765 228126460#0 316778911#1 287186149#1 251161865#1 7980446#1 7980446#2 7980446#3 7980446#4 107085648#0"/>
    </vehicle>
    <vehicle id="truck38" type="truck_truck" depart="114.00" departLane="best">
        <route edges="24534243#1 262140928 28297618#0 28297618#1 502060953#0 502060953#1 420551407#0 182065983#1 53175058 315426061 315426062 150000852 189773010#0 149996793 190451914#1 251106575 251106198#0 269040918 251106111#0 189032454 269040914 898416659 269040916 190446522 190446521#2 190443686 190443685 189768761 189768759 150853632 189765883#0 127607593 192428989 7656757 27247877 251816561 251816565#0 5475849#1 155860730#1 155860730#2 155860733#5 155860733#0 155860733#1 155860736 -155860744 -778982229#0 -121541411#0 -597172848 251816548 251820257 531113640 897661486 257675380#0 257675380#1 584126367#0 584126367#1 584126367#2 409287503 424501493#0 531114769 -217493751 217493751 473947957#0"/>
    </vehicle>
    <vehicle id="truck39" type="truck_truck" depart="117.00" departLane="best">
        <route edges="165720108#2.22 165720108#3 165720108#4 165720108#5 165720108#6 165720108#7 165720108#8 165720108#9 35951507#1 25890650#1 249461334#4 253488996 253488994 35951977#0 35951977#1 127608718#0 127608718#1 251816580 189765373 189765377 175588575#0 53175062#0 127607593 192428989 7656757 27247877 251816561 251816565#0 5475849#1 155860730#1 155860730#2 155860733#5 155860733#0 155860733#1 155860733#2 155860733#3 171935245#0 -28745182#1 -28745182#0 -28745180#1 -28745180#0 -429104325#0"/>
    </vehicle>
    <vehicle id="truck40" type="truck_truck" depart="120.00" departLane="best" departSpeed="max">
        <route edges="E8_y9 190451914#1 251106575 251106198#0 269040918 251106111#0 189032454 269040914 898416659 269040916 190446522 190446521#2 190443686 190443685 189768761 189768759 150853632 189765883#0 127607593 192428989 7656757 27247877 251816561 251816565#0 5475849#1 155860730#1 155860730#2 155860733#5 155860733#0 155860733#1 155860736 -155860744 -778982229#0 -121541411#0 -597172848 251816548 251820257 531113640 897661486 257675380#0 257675380#1 584126367#0 584126367#1 584126367#2 409287503 424501493#0 531114769 -217493751 -217493745 217382711"/>
    </vehicle>
    <vehicle id="truck41" type="truck_truck" depart="123.00" departLane="best">
        <route edges="-216146979 216146979 33083166 219005867#1 219005868#0 219005868#1 219005869 -718155368#1 -694345941#2 24685085 280873251#0 206777521#1 23566451#0 23566451#1 335986848#2 230991290#0 269040901#1 189772874#0 190451914#1 251106575 251106198#0 269040918 251106111#0 189032454 269040914 898416659 269040916 190446522 190446521#2 190443686 190443685 189768761 189768759 127607180#0 175586471 E7_y 377853509#0 377853509#1 377853508 150857433 150859889#0 150859889#1 -150859889#1 -150859889#0"/>
    </vehicle>
    <vehicle id="truck43" type="truck_truck" depart="129.00" departLane="best">
        <route edges="-183654631 -442749533 -442749531 -269017588#4 -269017588#3 -269017588#1 -532149775#2 -532149775#1 -532149775#0 -134396877 779043553#0 779043553#1 779043553#2 779043553#3 188462687#0 8067185#1 8067185#3 8067185#4 8067185#5 53175161 185576374#0 150837582#1 150837582#2 150837582#3 185579896#0 185579896#1 -185580084#1 -185580084#0 -149352823#1 -149352823#0 -253488999#3 -253488999#2 -253488999#1 -253488999#0 253489000#1 249461334#1 249461334#4 253488996 253488994 35951977#0 35951977#1 127608718#0 127608718#1 251816580 189765373 189765377 175588575#0 53175062#0 127607593 192428989 7656757 27247877 251816561 251816565#0 5475849#1 155860730#1 155860730#2 155860733#5 155860733#0 155860733#1 155860736 -155860744 14189050 -388697805#0 155860744"/>
    </vehicle>
    <vehicle id="truck44" type="truck_truck" depart="132.00" departLane="best">
        <route edges="E6_vu3 E8_vu3 121805095 32280972#3 32280972#4 32280972#5 32280972#0 32280972#1 121805100 E0_vu3 E1_vu3 -E8_vu3 E7_vu3 -360787852#3 -360787852#2 -360787852#0 -5475488#1 23137790#2 150543795 56186952 922053740 35134167#0 35134167#2 35134167#3 276412885 276412658 165825876 191003931#0 191003931#1 227062816"/>
    </vehicle>
    <vehicle id="truck45" type="truck_truck" depart="135.00" departLane="best">