<?xml version="1.0" encoding="UTF-8"?>

<!-- generated on 2023-03-06 16:04:08.145891 by randomTrips.py v1_14_1+0000-f654d7b963e
<configuration>
    <allow-fringe.min-length value="1000.0"/>
    <end value="3600"/>
    <fringe-factor value="5.0"/>
    <fringe-start-attributes value="departSpeed=&quot;max&quot;"/>
    <lanes value="True"/>
    <min-distance value="300.0"/>
    <net-file value="osm.net.xml"/>
    <period value="3.0"/>
    <route-file value="osm.passenger.rou.xml"/>
    <trip-attributes value="departLane=&quot;best&quot;"/>
    <output-trip-file value="osm.passenger.trips.xml"/>
    <prefix value="veh"/>
    <validate value="True"/>
    <vehicle-class value="passenger"/>
</configuration>
-->

<!-- generated on 2023-03-06 16:04:07 by Eclipse SUMO duarouter Version 1.14.1
<configuration xmlns:xsi="http://www.w3.org/2001/XMLSchema-instance" xsi:noNamespaceSchemaLocation="http://sumo.dlr.de/xsd/duarouterConfiguration.xsd">

    <input>
        <net-file value="osm.net.xml"/>
        <route-files value="osm.passenger.trips.xml"/>
    </input>

    <output>
        <output-file value="osm.passenger.trips.xml.tmp"/>
        <alternatives-output value="NUL"/>
        <write-trips value="true"/>
    </output>

    <time>
        <begin value="0"/>
        <end value="3600"/>
    </time>

    <report>
        <no-warnings value="true"/>
        <ignore-errors value="true"/>
        <no-step-log value="true"/>
    </report>

</configuration>
-->

<routes xmlns:xsi="http://www.w3.org/2001/XMLSchema-instance" xsi:noNamespaceSchemaLocation="http://sumo.dlr.de/xsd/routes_file.xsd">
    <vType id="veh_passenger" vClass="passenger"/>
    <trip id="veh0" type="veh_passenger" depart="0.00" departLane="best" from="269001615#1" to="-150554195#2"/>
    <trip id="veh1" type="veh_passenger" depart="3.00" departLane="best" from="150393270#0" to="107085655"/>
    <trip id="veh2" type="veh_passenger" depart="6.00" departLane="best" from="35834159" to="28143931#1"/>
    <trip id="veh3" type="veh_passenger" depart="9.00" departLane="best" from="531113643" to="-226872065#8"/>
    <trip id="veh4" type="veh_passenger" depart="12.00" departLane="best" from="105611252" to="229917857#1"/>
    <trip id="veh5" type="veh_passenger" depart="15.00" departLane="best" from="-150556231#2" to="-638123367#0"/>
    <trip id="veh6" type="veh_passenger" depart="18.00" departLane="best" from="269040901#1" to="24534195#0"/>
    <trip id="veh7" type="veh_passenger" depart="21.00" departLane="best" from="107085646#0" to="251987384#3"/>
    <trip id="veh8" type="veh_passenger" depart="24.00" departLane="best" from="40104609#2" to="-112796201#2"/>
    <trip id="veh9" type="veh_passenger" depart="27.00" departLane="best" from="39816394" to="306029065#3"/>
    <trip id="veh10" type="veh_passenger" depart="30.00" departLane="best" from="165823635" to="-35899348#1"/>
    <trip id="veh11" type="veh_passenger" depart="33.00" departLane="best" from="-240321453#1" to="-24532297#1"/>
    <trip id="veh12" type="veh_passenger" depart="36.00" departLane="best" from="4404113#0" to="253489007#0"/>
    <trip id="veh13" type="veh_passenger" depart="39.00" departLane="best" from="40103022" to="334457598#0"/>
    <trip id="veh14" type="veh_passenger" depart="42.00" departLane="best" from="24439729#0" to="97301282#1"/>
    <trip id="veh15" type="veh_passenger" depart="45.00" departLane="best" from="184227241#2" to="245941530#2"/>
    <trip id="veh16" type="veh_passenger" depart="48.00" departLane="best" from="415123460#0" to="257676226#1"/>
    <trip id="veh17" type="veh_passenger" depart="51.00" departLane="best" from="4432610#4" to="251816543"/>
    <trip id="veh18" type="veh_passenger" depart="54.00" departLane="best" from="31648189" to="-175558914#4"/>
    <trip id="veh19" type="veh_passenger" depart="57.00" departLane="best" from="107085664#0" to="150554195#2"/>
    <trip id="veh20" type="veh_passenger" depart="60.00" departLane="best" from="-218271804" to="1085759979#0"/>
    <trip id="veh21" type="veh_passenger" depart="63.00" departLane="best" from="-24534243#0" to="150540315"/>
    <trip id="veh22" type="veh_passenger" depart="66.00" departLane="best" from="268931683#1.46" to="17977155#1"/>
    <trip id="veh23" type="veh_passenger" depart="69.00" departLane="best" from="182826552" to="-E8_vu3"/>
    <trip id="veh24" type="veh_passenger" depart="72.00" departLane="best" from="149951200#2" to="79683431#1"/>
    <trip id="veh25" type="veh_passenger" depart="75.00" departLane="best" from="269017614" to="255389621#1"/>
    <trip id="veh26" type="veh_passenger" depart="78.00" departLane="best" from="-38152916#2" to="334457597#0"/>
    <trip id="veh27" type="veh_passenger" depart="81.00" departLane="best" from="-366073449" to="185573957#0"/>
    <trip id="veh28" type="veh_passenger" depart="84.00" departLane="best" from="E21_y8" to="269001612#4"/>
    <trip id="veh29" type="veh_passenger" depart="87.00" departLane="best" from="246584302#0" to="29020152"/>
    <trip id="veh30" type="veh_passenger" depart="90.00" departLane="best" from="43578399#1" to="371300204#0"/>
    <trip id="veh31" type="veh_passenger" depart="93.00" departLane="best" from="1081335276" to="-150851814#1"/>
    <trip id="veh32" type="veh_passenger" depart="96.00" departLane="best" from="150896688#0" to="149951202#6"/>
    <trip id="veh33" type="veh_passenger" depart="99.00" departLane="best" from="-E3_y" to="85287421#1"/>
    <trip id="veh34" type="veh_passenger" depart="102.00" departLane="best" from="475679571#3" to="150896688#3"/>
    <trip id="veh35" type="veh_passenger" depart="105.00" departLane="best" from="270655638" to="189764669#0"/>
    <trip id="veh36" type="veh_passenger" depart="108.00" departLane="best" from="57846800#1" to="215925850#1"/>
    <trip id="veh37" type="veh_passenger" depart="111.00" departLane="best" from="149898017#0" to="127607180#0"/>
    <trip id="veh38" type="veh_passenger" depart="114.00" departLane="best" from="24916962#0" to="149352823#1"/>
    <trip id="veh39" type="veh_passenger" depart="117.00" departLane="best" from="251816590" to="53175067#1"/>
    <trip id="veh40" type="veh_passenger" depart="120.00" departLane="best" from="189765125#0" to="107085647#1"/>
    <trip id="veh41" type="veh_passenger" depart="123.00" departLane="best" from="-240321445#1" to="-178935171#0"/>
    <trip id="veh42" type="veh_passenger" depart="126.00" departLane="best" from="-24909020#2" to="266188220#1"/>
    <trip id="veh43" type="veh_passenger" depart="129.00" departLane="best" from="385970247#2" to="190458063"/>
    <trip id="veh44" type="veh_passenger" depart="132.00" departLane="best" from="-210362483#1" to="185579896#1"/>
    <trip id="veh45" type="veh_passenger" depart="135.00" departLane="best" from="E7_vu3" to="240321445#8"/>
    <trip id="veh46" type="veh_passenger" depart="138.00" departLane="best" from="95170298.51" to="4432606#4"/>
    <trip id="veh47" type="veh_passenger" depart="141.00" departLane="best" from="-134396877" to="320630988#2"/>
    <trip id="veh48" type="veh_passenger" depart="144.00" departLane="best" from="28874733#0" to="24470190#0"/>
    <trip id="veh49" type="veh_passenger" depart="147.00" departLane="best" from="149951200#1" to="269001613#0"/>
    <trip id="veh50" type="veh_passenger" depart="150.00" departLane="best" from="-253488999#3" to="199831388.17"/>
    <trip id="veh51" type="veh_passenger" depart="153.00" departLane="best" from="209308037#1" to="898486014#0"/>
    <trip id="veh52" type="veh_passenger" depart="156.00" departLane="best" from="475657675" to="149899941"/>
    <trip id="veh53" type="veh_passenger" depart="159.00" departLane="best" from="229619678#0" to="-415123460#3"/>
    <trip id="veh54" type="veh_passenger" depart="162.00" departLane="best" from="56186954" to="466077685"/>
    <trip id="veh56" type="veh_passenger" depart="168.00" departLane="best" from="255389622#6" to="-35014374#2"/>
    <trip id="veh57" type="veh_passenger" depart="171.00" departLane="best" from="364080662#0" to="24532297#1"/>
    <trip id="veh58" type="veh_passenger" depart="174.00" departLane="best" from="376849860#1" to="240321453#0"/>
    <trip id="veh59" type="veh_passenger" depart="177.00" departLane="best" from="-102486913#0" to="155860733#5"/>
    <trip id="veh60" type="veh_passenger" depart="180.00" departLane="best" from="-150393268#2" to="71256192"/>
    <trip id="veh62" type="veh_passenger" depart="186.00" departLane="best" from="150851811#2" to="-207220343"/>
    <trip id="veh63" type="veh_passenger" depart="189.00" departLane="best" from="500261498" to="880134845"/>
    <trip id="veh64" type="veh_passenger" depart="192.00" departLane="best" from="-226872065#10" to="227062813#1"/>
    <trip id="veh65" type="veh_passenger" depart="195.00" departLane="best" from="-215925852#1" to="364071761#0"/>
    <trip id="veh66" type="veh_passenger" depart="198.00" departLane="best" from="366073458#1" to="-28745180#0"/>
    <trip id="veh68" type="veh_passenger" depart="204.00" departLane="best" from="149899941" to="466081173#1"/>
    <trip id="veh69" type="veh_passenger" depart="207.00" departLane="best" from="190458064#2" to="102774826"/>
    <trip id="veh70" type="veh_passenger" depart="210.00" departLane="best" from="24532297#1" to="334457598#3"/>
    <trip id="veh71" type="veh_passenger" depart="213.00" departLane="best" from="-597172848" to="150857994#2"/>
    <trip id="veh72" type="veh_passenger" depart="216.00" departLane="best" from="E4_vu3" to="269017600#1"/>
    <trip id="veh73" type="veh_passenger" depart="219.00" departLane="best" from="204976967" to="235389906"/>
    <trip id="veh74" type="veh_passenger" depart="222.00" departLane="best" from="-27245673#3" to="107085662#0"/>
    <trip id="veh75" type="veh_passenger" depart="225.00" departLane="best" from="165720108#2.22" to="251987384#1"/>
    <trip id="veh76" type="veh_passenger" depart="228.00" departLane="best" departSpeed="max" from="1081335277" to="107085648#0"/>
    <trip id="veh77" type="veh_passenger" depart="231.00" departLane="best" from="-215971172#0" to="268931658"/>
    <trip id="veh78" type="veh_passenger" depart="234.00" departLane="best" from="1081335276" to="532149775#2"/>
    <trip id="veh79" type="veh_passenger" depart="237.00" departLane="best" from="4432606#5" to="-215971173#0"/>
    <trip id="veh80" type="veh_passenger" depart="240.00" departLane="best" from="1085759981#1" to="27245998"/>
    <trip id="veh81" type="veh_passenger" depart="243.00" departLane="best" from="1038224266#0" to="-30158429#1"/>
    <trip id="veh82" type="veh_passenger" depart="246.00" departLane="best" from="7972298" to="251109201"/>
    <trip id="veh83" type="veh_passenger" depart="249.00" departLane="best" from="218061156#1" to="377905808#0"/>
    <trip id="veh84" type="veh_passenger" depart="252.00" departLane="best" from="40103023#1" to="-531113646"/>
    <trip id="veh85" type="veh_passenger" depart="255.00" departLane="best" from="-24532297#0" to="19354458#1"/>
    <trip id="veh86" type="veh_passenger" depart="258.00" departLane="best" from="190458064#4" to="216879574#3"/>
    <trip id="veh87" type="veh_passenger" depart="261.00" departLane="best" from="343029968#1" to="276412658"/>
    <trip id="veh88" type="veh_passenger" depart="264.00" departLane="best" departSpeed="max" from="E11_P7" to="-24534083#0"/>
    <trip id="veh89" type="veh_passenger" depart="267.00" departLane="best" from="189765373" to="165823634#1.7"/>
    <trip id="veh90" type="veh_passenger" depart="270.00" departLane="best" from="4432610#4" to="127608718#0"/>
    <trip id="veh91" type="veh_passenger" depart="273.00" departLane="best" departSpeed="max" from="-46963653#2" to="207636690#1"/>
    <trip id="veh92" type="veh_passenger" depart="276.00" departLane="best" from="190451914#1" to="150546872"/>
    <trip id="veh93" type="veh_passenger" depart="279.00" departLane="best" from="127607180#0" to="638123367#0"/>
    <trip id="veh94" type="veh_passenger" depart="282.00" departLane="best" from="205880175#1" to="4432606#6"/>
    <trip id="veh95" type="veh_passenger" depart="285.00" departLane="best" from="24573650#3" to="-190443683#0"/>
    <trip id="veh96" type="veh_passenger" depart="288.00" departLane="best" from="EMk3" to="424501493#0"/>
    <trip id="veh97" type="veh_passenger" depart="291.00" departLane="best" from="95170291#4" to="692648168#4"/>
    <trip id="veh98" type="veh_passenger" depart="294.00" departLane="best" from="4404113#2" to="-371573876#4"/>
    <trip id="veh99" type="veh_passenger" depart="297.00" departLane="best" from="227062813#0" to="1055823708#2"/>
    <trip id="veh100" type="veh_passenger" depart="300.00" departLane="best" from="189765125#2" to="-207636690#0"/>
    <trip id="veh101" type="veh_passenger" depart="303.00" departLane="best" from="184227241#4" to="E18_y"/>
    <trip id="veh102" type="veh_passenger" depart="306.00" departLane="best" from="149899941" to="377853509#0"/>
    <trip id="veh103" type="veh_passenger" depart="309.00" departLane="best" from="210082253" to="190458064#3"/>
    <trip id="veh104" type="veh_passenger" depart="312.00" departLane="best" from="93785423" to="E4_y"/>
    <trip id="veh105" type="veh_passenger" depart="315.00" departLane="best" from="24608228" to="320252634#3"/>
    <trip id="veh106" type="veh_passenger" depart="318.00" departLane="best" from="-35834153#0" to="150694616#2"/>
    <trip id="veh107" type="veh_passenger" depart="321.00" departLane="best" from="95170291#4" to="251816552"/>
    <trip id="veh108" type="veh_passenger" depart="324.00" departLane="best" from="24533443#1" to="359726683#2"/>
    <trip id="veh109" type="veh_passenger" depart="327.00" departLane="best" from="-205880175#2" to="251816579"/>
    <trip id="veh110" type="veh_passenger" depart="330.00" departLane="best" from="229619682#1" to="4404115#0"/>
    <trip id="veh111" type="veh_passenger" depart="333.00" departLane="best" from="-360787852#0" to="93785463#0.22"/>
    <trip id="veh112" type="veh_passenger" depart="336.00" departLane="best" from="-218271806#0" to="-4492379#1"/>
    <trip id="veh113" type="veh_passenger" depart="339.00" departLane="best" from="253488980" to="280873251#0"/>
    <trip id="veh114" type="veh_passenger" depart="342.00" departLane="best" from="108404033#0" to="-270684576#0"/>
    <trip id="veh115" type="veh_passenger" depart="345.00" departLane="best" from="53040718#2" to="127607180#0"/>
    <trip id="veh117" type="veh_passenger" depart="351.00" departLane="best" from="190443688#0" to="251816568"/>
    <trip id="veh118" type="veh_passenger" depart="354.00" departLane="best" from="236994808" to="779043553#2"/>
    <trip id="veh119" type="veh_passenger" depart="357.00" departLane="best" from="1101405928#0" to="189764669#0"/>
    <trip id="veh120" type="veh_passenger" depart="360.00" departLane="best" from="27870084#0" to="150741844"/>
    <trip id="veh121" type="veh_passenger" depart="363.00" departLane="best" from="150896688#2" to="360248187#0"/>
    <trip id="veh122" type="veh_passenger" depart="366.00" departLane="best" from="-215971175#2" to="214251574"/>
    <trip id="veh123" type="veh_passenger" depart="369.00" departLane="best" from="EMk2" to="E7_vu3"/>
    <trip id="veh124" type="veh_passenger" depart="372.00" departLane="best" from="-216128744#0" to="1055823708#0"/>
    <trip id="veh126" type="veh_passenger" depart="378.00" departLane="best" from="502060953#0" to="489072363"/>
    <trip id="veh127" type="veh_passenger" depart="381.00" departLane="best" from="182489958" to="-360787852#0"/>
    <trip id="veh128" type="veh_passenger" depart="384.00" departLane="best" departSpeed="max" from="42465494" to="309717596#2"/>
    <trip id="veh129" type="veh_passenger" depart="387.00" departLane="best" departSpeed="max" from="255823912.246" to="E21_y8"/>
    <trip id="veh130" type="veh_passenger" depart="390.00" departLane="best" from="404599853" to="150697173#2"/>
    <trip id="veh132" type="veh_passenger" depart="396.00" departLane="best" from="-306029065#0" to="-268931675#1"/>
    <trip id="veh133" type="veh_passenger" depart="399.00" departLane="best" from="-24608228" to="24608195#0"/>
    <trip id="veh135" type="veh_passenger" depart="405.00" departLane="best" from="320630989#0" to="-85287421#1"/>
    <trip id="veh136" type="veh_passenger" depart="408.00" departLane="best" from="268931678" to="149904354"/>
    <trip id="veh138" type="veh_passenger" depart="414.00" departLane="best" from="4403852#0" to="-240321453#1"/>
    <trip id="veh140" type="veh_passenger" depart="420.00" departLane="best" from="-1101405928#0" to="366073475#1"/>
    <trip id="veh141" type="veh_passenger" depart="423.00" departLane="best" from="269001612#4" to="148359950#3"/>
    <trip id="veh143" type="veh_passenger" depart="429.00" departLane="best" from="191128494" to="-130540643"/>
    <trip id="veh144" type="veh_passenger" depart="432.00" departLane="best" from="-216879574#4" to="502060953#0"/>
    <trip id="veh145" type="veh_passenger" depart="435.00" departLane="best" from="53175165" to="24534243#0"/>
    <trip id="veh146" type="veh_passenger" depart="438.00" departLane="best" departSpeed="max" from="42465494" to="251816566#2"/>
    <trip id="veh147" type="veh_passenger" depart="441.00" departLane="best" from="-33083988#1" to="-28646387#1"/>
    <trip id="veh148" type="veh_passenger" depart="444.00" departLane="best" from="150851814#1" to="53175067#4"/>
    <trip id="veh149" type="veh_passenger" depart="447.00" departLane="best" from="388155249#1" to="4432606#4"/>
    <trip id="veh150" type="veh_passenger" depart="450.00" departLane="best" from="53175069#3" to="102486913#0"/>
    <trip id="veh151" type="veh_passenger" depart="453.00" departLane="best" from="127606907#3" to="-245941530#2"/>
    <trip id="veh153" type="veh_passenger" depart="459.00" departLane="best" from="189769943#0" to="25876774"/>
    <trip id="veh154" type="veh_passenger" depart="462.00" departLane="best" from="-356183313" to="724854350#0"/>
    <trip id="veh155" type="veh_passenger" depart="465.00" departLane="best" from="4492379#1" to="999859779#1"/>
    <trip id="veh156" type="veh_passenger" depart="468.00" departLane="best" from="40104609#7" to="500582850"/>
    <trip id="veh157" type="veh_passenger" depart="471.00" departLane="best" from="-150554195#2" to="35134167#2"/>
    <trip id="veh158" type="veh_passenger" depart="474.00" departLane="best" from="164092564" to="739653275"/>
    <trip id="veh159" type="veh_passenger" depart="477.00" departLane="best" from="39649662#2" to="4432614#0"/>
    <trip id="veh160" type="veh_passenger" depart="480.00" departLane="best" from="40104609#7" to="149951202#3"/>
    <trip id="veh162" type="veh_passenger" depart="486.00" departLane="best" from="46963142#1" to="4432606#10"/>
    <trip id="veh163" type="veh_passenger" depart="489.00" departLane="best" from="107085648#1" to="402016784"/>
    <trip id="veh164" type="veh_passenger" depart="492.00" departLane="best" from="215925857#1" to="150837585#3"/>
    <trip id="veh165" type="veh_passenger" depart="495.00" departLane="best" from="387015293#3" to="108404025#0"/>
    <trip id="veh166" type="veh_passenger" depart="498.00" departLane="best" from="-150549242#1" to="-53175159#0"/>
    <trip id="veh167" type="veh_passenger" depart="501.00" departLane="best" from="163419466#1" to="4432614#2"/>
    <trip id="veh168" type="veh_passenger" depart="504.00" departLane="best" from="95170275" to="150546874#1"/>
    <trip id="veh169" type="veh_passenger" depart="507.00" departLane="best" from="269001621#3" to="189765125#1"/>
    <trip id="veh170" type="veh_passenger" depart="510.00" departLane="best" from="E10_y" to="24439729#0"/>
    <trip id="veh171" type="veh_passenger" depart="513.00" departLane="best" from="8067185#1" to="-268931675#1"/>
    <trip id="veh172" type="veh_passenger" depart="516.00" departLane="best" from="95170298" to="-415123460#3"/>
    <trip id="veh173" type="veh_passenger" depart="519.00" departLane="best" from="93785463#1" to="149951200#3"/>
    <trip id="veh174" type="veh_passenger" depart="522.00" departLane="best" from="-24819999#1" to="199831388.17"/>
    <trip id="veh175" type="veh_passenger" depart="525.00" departLane="best" from="343029968#1" to="150893567"/>
    <trip id="veh176" type="veh_passenger" depart="528.00" departLane="best" from="187057791#2" to="251816541"/>
    <trip id="veh177" type="veh_passenger" depart="531.00" departLane="best" departSpeed="max" from="130540615" to="31648322#1"/>
    <trip id="veh178" type="veh_passenger" depart="534.00" departLane="best" from="-1055826509" to="674280493"/>
    <trip id="veh179" type="veh_passenger" depart="537.00" departLane="best" from="24532277#0" to="320252634#9"/>
    <trip id="veh180" type="veh_passenger" depart="540.00" departLane="best" departSpeed="max" from="35929667.403" to="27261757#1"/>
    <trip id="veh181" type="veh_passenger" depart="543.00" departLane="best" from="179527904#1" to="-215971171#1"/>
    <trip id="veh182" type="veh_passenger" depart="546.00" departLane="best" from="27245673#5" to="164085721#5"/>
    <trip id="veh183" type="veh_passenger" depart="549.00" departLane="best" from="150859889#0" to="4403852#1"/>
    <trip id="veh185" type="veh_passenger" depart="555.00" departLane="best" from="150851814#4" to="189776524"/>
    <trip id="veh186" type="veh_passenger" depart="558.00" departLane="best" from="189765373" to="150661833#1"/>
    <trip id="veh187" type="veh_passenger" depart="561.00" departLane="best" from="-28646387#0" to="190446522"/>
    <trip id="veh188" type="veh_passenger" depart="564.00" departLane="best" from="818899846.17" to="28297618#0"/>
    <trip id="veh189" type="veh_passenger" depart="567.00" departLane="best" from="53175163#1" to="25586776"/>
    <trip id="veh190" type="veh_passenger" depart="570.00" departLane="best" from="150697173#2" to="24549661#1"/>
    <trip id="veh191" type="veh_passenger" depart="573.00" departLane="best" from="-102397616#1" to="150554190#1"/>
    <trip id="veh192" type="veh_passenger" depart="576.00" departLane="best" from="192428988#0" to="251816555"/>
    <trip id="veh193" type="veh_passenger" depart="579.00" departLane="best" from="270655622" to="215971176#5"/>
    <trip id="veh194" type="veh_passenger" depart="582.00" departLane="best" from="205880172" to="1055823708#1"/>
    <trip id="veh195" type="veh_passenger" depart="585.00" departLane="best" from="218271806#1" to="53175159#1"/>
    <trip id="veh196" type="veh_passenger" depart="588.00" departLane="best" from="388155249#0" to="-38152916#3"/>
    <trip id="veh198" type="veh_passenger" depart="594.00" departLane="best" from="268931672#0" to="164152502#7"/>
    <trip id="veh199" type="veh_passenger" depart="597.00" departLane="best" from="404599857#2" to="360248182#0"/>
    <trip id="veh200" type="veh_passenger" depart="600.00" departLane="best" from="-53573984#3" to="-150549252#2"/>
    <trip id="veh201" type="veh_passenger" depart="603.00" departLane="best" from="115738329#0" to="218303475"/>
    <trip id="veh202" type="veh_passenger" depart="606.00" departLane="best" from="4404114#0" to="-216128744#0"/>
    <trip id="veh203" type="veh_passenger" depart="609.00" departLane="best" from="190340310#1" to="268931655#0"/>
    <trip id="veh204" type="veh_passenger" depart="612.00" departLane="best" from="-53175069#1" to="305869959#1"/>
    <trip id="veh205" type="veh_passenger" depart="615.00" departLane="best" from="227205259#0" to="121805107#0"/>
    <trip id="veh206" type="veh_passenger" depart="618.00" departLane="best" from="270655640" to="-1101640531#0"/>
    <trip id="veh207" type="veh_passenger" depart="621.00" departLane="best" from="360248187#5" to="366073470#1"/>
    <trip id="veh208" type="veh_passenger" depart="624.00" departLane="best" from="-24608208#1" to="190462985"/>
    <trip id="veh209" type="veh_passenger" depart="627.00" departLane="best" from="-39649662#3" to="93785348"/>
    <trip id="veh210" type="veh_passenger" depart="630.00" departLane="best" from="235389907" to="-190438079#0"/>
    <trip id="veh211" type="veh_passenger" depart="633.00" departLane="best" from="127606907#3" to="4403852#3"/>
    <trip id="veh212" type="veh_passenger" depart="636.00" departLane="best" from="210441951#1" to="389119564#1"/>
    <trip id="veh213" type="veh_passenger" depart="639.00" departLane="best" from="27261757#1" to="E22_y8"/>
    <trip id="veh214" type="veh_passenger" depart="642.00" departLane="best" from="253488984" to="898416659"/>
    <trip id="veh215" type="veh_passenger" depart="645.00" departLane="best" from="531113640" to="255389622#6"/>
    <trip id="veh216" type="veh_passenger" depart="648.00" departLane="best" from="323709010" to="229679020"/>
    <trip id="veh217" type="veh_passenger" depart="651.00" departLane="best" from="415123460#4" to="24549661#1"/>
    <trip id="veh218" type="veh_passenger" depart="654.00" departLane="best" from="53175067#2" to="358953097#1"/>
    <trip id="veh219" type="veh_passenger" depart="657.00" departLane="best" from="121805106" to="268931682#0"/>
    <trip id="veh220" type="veh_passenger" depart="660.00" departLane="best" from="366073458#1" to="235391298"/>
    <trip id="veh221" type="veh_passenger" depart="663.00" departLane="best" from="268931655#0" to="150393270#3"/>
    <trip id="veh223" type="veh_passenger" depart="669.00" departLane="best" from="149996793" to="151788685"/>
    <trip id="veh224" type="veh_passenger" depart="672.00" departLane="best" from="24532391#1" to="-313209997#1"/>
    <trip id="veh225" type="veh_passenger" depart="675.00" departLane="best" from="108404025#1" to="305325048#0.14"/>
    <trip id="veh226" type="veh_passenger" depart="678.00" departLane="best" from="317890187" to="-210441945#1"/>
    <trip id="veh227" type="veh_passenger" depart="681.00" departLane="best" from="189773010#0" to="24533443#1"/>
    <trip id="veh228" type="veh_passenger" depart="684.00" departLane="best" from="190348536#0" to="-97142254"/>
    <trip id="veh229" type="veh_passenger" depart="687.00" departLane="best" from="190443836" to="53175165"/>
    <trip id="veh230" type="veh_passenger" depart="690.00" departLane="best" from="251816583#3" to="305829909#0"/>
    <trip id="veh231" type="veh_passenger" depart="693.00" departLane="best" from="4432606#1" to="365158567"/>
    <trip id="veh232" type="veh_passenger" depart="696.00" departLane="best" from="185576374#0" to="-1101640531#1"/>
    <trip id="veh234" type="veh_passenger" depart="702.00" departLane="best" from="440834669#2" to="898484255"/>
    <trip id="veh235" type="veh_passenger" depart="705.00" departLane="best" from="190443688#0" to="359726683#0"/>
    <trip id="veh236" type="veh_passenger" depart="708.00" departLane="best" from="24549476#2" to="253489003"/>
    <trip id="veh237" type="veh_passenger" depart="711.00" departLane="best" from="203461112#1" to="-150697173#1"/>
    <trip id="veh238" type="veh_passenger" depart="714.00" departLane="best" from="164152502#9" to="28646387#3"/>
    <trip id="veh239" type="veh_passenger" depart="717.00" departLane="best" from="189768759" to="-371306931"/>
    <trip id="veh240" type="veh_passenger" depart="720.00" departLane="best" from="216879574#4" to="-28646387#2"/>
    <trip id="veh241" type="veh_passenger" depart="723.00" departLane="best" from="258979265#1" to="-150556231#3"/>
    <trip id="veh242" type="veh_passenger" depart="726.00" departLane="best" from="188462504" to="249461334#4"/>
    <trip id="veh244" type="veh_passenger" depart="732.00" departLane="best" from="-306029065#5" to="215971172#1"/>
    <trip id="veh245" type="veh_passenger" depart="735.00" departLane="best" from="-190340310#0" to="185352101"/>
    <trip id="veh246" type="veh_passenger" depart="738.00" departLane="best" from="-E8_vu3" to="163419461"/>
    <trip id="veh248" type="veh_passenger" depart="744.00" departLane="best" from="127608718#0" to="-219005861"/>
    <trip id="veh249" type="veh_passenger" depart="747.00" departLane="best" from="-150393268#0" to="24532297#1"/>
    <trip id="veh250" type="veh_passenger" depart="750.00" departLane="best" from="EMk4" to="172330768"/>
    <trip id="veh251" type="veh_passenger" depart="753.00" departLane="best" from="269040901#1" to="376865249#0"/>
    <trip id="veh252" type="veh_passenger" depart="756.00" departLane="best" from="269040907#1" to="360248194"/>
    <trip id="veh253" type="veh_passenger" depart="759.00" departLane="best" from="898459770" to="-638123367#2"/>
    <trip id="veh254" type="veh_passenger" depart="762.00" departLane="best" from="-150393270#11" to="-35014374#0"/>
    <trip id="veh255" type="veh_passenger" depart="765.00" departLane="best" from="-282331231#1" to="27247877"/>
    <trip id="veh256" type="veh_passenger" depart="768.00" departLane="best" from="249461334#4" to="107085644"/>
    <trip id="veh257" type="veh_passenger" depart="771.00" departLane="best" from="30845552#1" to="366073453#1"/>
    <trip id="veh258" type="veh_passenger" depart="774.00" departLane="best" from="-377853509#0" to="254497023"/>
    <trip id="veh259" type="veh_passenger" depart="777.00" departLane="best" from="360037734#1" to="-266188220#1"/>
    <trip id="veh261" type="veh_passenger" depart="783.00" departLane="best" from="-24819999#0" to="-150556228"/>
    <trip id="veh262" type="veh_passenger" depart="786.00" departLane="best" from="150857989#1" to="28297618#0"/>
    <trip id="veh263" type="veh_passenger" depart="789.00" departLane="best" from="93785434" to="189764716#1"/>
    <trip id="veh264" type="veh_passenger" depart="792.00" departLane="best" from="320252634#2" to="-217382713#1"/>