<?xml version="1.0" encoding="UTF-8"?>

<!-- generated on 2023-03-06 16:04:05.690335 by randomTrips.py v1_14_1+0000-f654d7b963e
<configuration>
    <allow-fringe.min-length value="1000.0"/>
    <end value="3600"/>
    <fringe-factor value="5.0"/>
    <fringe-start-attributes value="departSpeed=&quot;max&quot;"/>
    <lanes value="True"/>
    <min-distance value="300.0"/>
    <net-file value="osm.net.xml"/>
    <period value="3.0"/>
    <route-file value="osm.passenger.rou.xml"/>
    <trip-attributes value="departLane=&quot;best&quot;"/>
    <output-trip-file value="osm.passenger.trips.xml"/>
    <prefix value="veh"/>
    <validate value="True"/>
    <vehicle-class value="passenger"/>
</configuration>
-->

<!-- generated on 2023-03-06 16:04:04 by Eclipse SUMO duarouter Version 1.14.1
<configuration xmlns:xsi="http://www.w3.org/2001/XMLSchema-instance" xsi:noNamespaceSchemaLocation="http://sumo.dlr.de/xsd/duarouterConfiguration.xsd">

    <input>
        <net-file value="osm.net.xml"/>
        <route-files value="osm.passenger.trips.xml"/>
    </input>

    <output>
        <output-file value="osm.passenger.rou.xml"/>
        <alternatives-output value="NUL"/>
    </output>

    <time>
        <begin value="0"/>
        <end value="3600"/>
    </time>

    <report>
        <no-warnings value="true"/>
        <ignore-errors value="true"/>
        <no-step-log value="true"/>
    </report>

</configuration>
-->

<routes xmlns:xsi="http://www.w3.org/2001/XMLSchema-instance" xsi:noNamespaceSchemaLocation="http://sumo.dlr.de/xsd/routes_file.xsd">
    <vType id="veh_passenger" vClass="passenger"/>
    <vehicle id="veh0" type="veh_passenger" depart="0.00" departLane="best">
        <route edges="269001615#1 235391298 150694607#0 150694607#2 183654500#0 183654500#1 183413425 235390974 235391021 235391020#0 235391020#1 235391022 396381365 235389907 235389906 235389908#0 269001612#2 269001612#3 269001612#4 269001612#5 235390248#0 235390248#1 183629216#0 204207294 315426064 150549933#0 164086589 164086593 45085542#0 268931673#1 270655631 270655638 711528929#0 360248211#0 360248211#1 360248211#2 360248211#3 360248211#4 28874733#0 28874733#1 29065540#0 -150554195#2"/>
    </vehicle>
    <vehicle id="veh1" type="veh_passenger" depart="3.00" departLane="best">
        <route edges="150393270#0 150393270#1 150393270#2 150393270#3 150393270#4 150393270#5 150393270#6 150393270#7 150393270#8 150393270#9 150393270#10 150393270#11 150393270#12 150393270#14 121805107#0 121805107#1 121805107#2 32280972#5 32280972#0 32280972#1 121805100 E0_vu3 E1_vu3 -E8_vu3 E7_vu3 -360787852#3 -360787852#2 -360787852#0 -5475488#1 23137790#2 150543795 56186952 922053740 35134167#0 35134167#2 35134167#3 276412885 276412658 189877634#0 96747828#0 -96851712#0 96851712#0 7980446#1 7980446#2 7980446#3 7980446#4 107085655"/>
    </vehicle>
    <vehicle id="veh2" type="veh_passenger" depart="6.00" departLane="best">
        <route edges="35834159 402016795 40584784 187060049#0 187060049#1 561882212 115738329#0 29350090 320207734 320202776 150546874#1 402016791 320210276 7972298 739653275 409702806#1 438279356 -442789059 -19354456 227062821#0 28143931#1"/>
    </vehicle>
    <vehicle id="veh3" type="veh_passenger" depart="9.00" departLane="best">
        <route edges="531113643 251816543 229621539#0 227205258#1 229619678#0 229619678#1 229619682#0 229619682#1 229591994#0 205880172 10510838 206972874#1 -214228962 -214586607#0 -218279120 -217400437#0 -216146979 -226872065#11 -226872065#10 -226872065#9 -226872065#8"/>
    </vehicle>
    <vehicle id="veh4" type="veh_passenger" depart="12.00" departLane="best">
        <route edges="105611252 358953088#0 358953088#1 151820116 239844702#0 239844702#1 150546880 187628738#0 270905178#0 187060058#3 187060057#0 42760132 371300204#0 190032739 371300202 35925380#1 35925380#2 -35834157#2 -35834157#1 56185657#0 56185657#2 258979227 229917857#1"/>
    </vehicle>
    <vehicle id="veh5" type="veh_passenger" depart="15.00" departLane="best">
        <route edges="-150556231#2 -150556231#1 -150556231#0 150556231#0 150556231#1 150556231#2 150556231#3 4403852#2 4403852#3 4403852#4 628505595#0 187060055 53175058 315426061 315426062 204400292 251109201 187060050#2 781345962 300035524 150857432#2 93785423 253488957#0 253488944 94586305 500261498 94586298 500261497 150837582#1 150837582#2 150837582#3 185579896#0 185579896#1 53175059#1 1081335276 187061084 187061084.80 187061084.80.24 151785784#0 151785784#0.3 151785784#0.10 151785784#1 151785784#2 253489003 253489002#2 29020152 169603172#0 4082946#1 129556185 183972017 53573984#2 53573984#3 638123367#0 638123367#1 638123367#2 -638123367#2 -638123367#1 -638123367#0"/>
    </vehicle>
    <vehicle id="veh6" type="veh_passenger" depart="18.00" departLane="best">
        <route edges="269040901#1 189772874#0 190451409 269040904 230602993 190438083#1 269040907#0 269040907#1 149899941 253488977#0 42760138 149904354 460396653 218778912 268931658 42760136 -531548528 -149942614#1 -149942614#0 4432610#6 4432610#1 24534182 24534195#0"/>
    </vehicle>
    <vehicle id="veh7" type="veh_passenger" depart="21.00" departLane="best">
        <route edges="107085646#0 107085646#1 107085666 287186163#0 287186163#1 226991208#0 228126461#1 462537200#1 462537200#1.25 249375697#1 269040901#1 189772874#0 190451409 269040904 230602993 190438083#1 269040907#0 269040907#1 149899941 253488977#0 42760138 149904354 460396653 218778912 268931658 42760136 268931654#1 147683979#0 147683979#2 269001617 269001621#3 269001620#0 102491096#0 251987384#1 251987384#2 251987384#3"/>
    </vehicle>
    <vehicle id="veh8" type="veh_passenger" depart="24.00" departLane="best">
        <route edges="40104609#2 40104609#3 40104609#4 40104609#5 40104609#6 40104609#7 206833547#0 206833547#1 -205103380#3 -205103380#2 -205103380#1 -205103380#0 -205880175#2 -205880175#1 -205880175#0 205988835 254497023 224883546 229679020 251820258 199831388 199831388.17 229619681#1 251816552 227205263 196832679 223859973 251816578 251816579 223845140 403293876 184156802#0 376865249#0 376865249#1 150540310 150540315 184156817 184156816 184156815 5466445#0 190340312 216879571 674280493 102774826 102749569 359947001 187057793#0 190340309 31648322#0 31648322#1 31648322#2 31648189 320240823 31648190#0 31648190#1 739924926 739924928#0 739924928#1 739924927#0 739924927#2 -240321454#2 -240321454#1 -240321454#0 -112796201#4 -112796201#3 -112796201#2"/>
    </vehicle>
    <vehicle id="veh9" type="veh_passenger" depart="27.00" departLane="best">
        <route edges="39816394 431889849#0 431889849#1 431889849#3 228126461#1 462537200#1 462537200#1.25 548514765 228126460#0 316778911#1 287186149#1 251161865#1 781419324 404599852 404599853 251157594 548514764#2 548514763#0 189876499 160173625 360785921#0 360785921#1 5111851 360785920#0 190340308 E2_vu3 E3_vu3 E4_vu3 399741671 190340312 216879571 674280493 102774826 102749569 359947001 187057793#0 190340309 31648322#0 31648322#1 31648322#2 31648189 320240823 31648190#0 31648190#1 739924926 739924925 35014373#1 35014373#3 40586130#0 -306029065#5 -306029065#4 -306029065#3 -306029065#2 -306029065#1 -306029065#0 306029065#0 306029065#1 306029065#2 306029065#3"/>
    </vehicle>
    <vehicle id="veh10" type="veh_passenger" depart="30.00" departLane="best">
        <route edges="165823635 626345991 97301277#0 189877848 96747828#0 -96851712#0 -35899348#1"/>
    </vehicle>
    <vehicle id="veh11" type="veh_passenger" depart="33.00" departLane="best">
        <route edges="-240321453#1 240321453#1 -35014371#5 -35014371#4 -35014371#3 -35014371#0 -739924928#1 -739924928#0 -739924926 -31648190#1 -31648190#0 -402016793 -31648189 128081143 320235813#0 320239492#1 -104363155#1 24377359 56185654 56185655#0 56185655#1 189776524 56454445 187057791#0 187057791#1 187057791#2 23137790#2 150543795 56186952 922053740 35134167#0 35134167#2 35134167#3 276412885 276412658 189877634#0 96747828#0 56185651#3 226991208#0 228126461#1 462537200#1 462537200#1.25 249375697#1 269040901#1 189772874#0 190451409 269040904 230602993 190438083#1 269040907#0 269040907#1 204400292 251109201 187060050#2 781345962 300035524 150857432#2 93785423 253488957#0 253488944 94586305 500261498 94586298 108404028 364080659#0 364080659#1 364080660#0 364080660#1 -24532297#1"/>
    </vehicle>
    <vehicle id="veh12" type="veh_passenger" depart="36.00" departLane="best">
        <route edges="4404113#0 1055823708#0 1055823708#1 1055823708#2 1055823708#3 1055823708#4 4403852#0 4403852#1 4403852#2 4403852#3 4403852#4 628505595#0 187060055 53175058 315426061 315426062 204400292 251109201 187060050#2 781345962 300035524 150857432#2 93785423 253488957#0 253488944 94586305 500261498 94586298 500261497 150837582#1 150837582#2 150837582#3 185579896#0 185579896#1 53175059#1 1081335276 187061084 187061084.80 E18_y E18.17 93785348 55608997 95170292#1 95170292#2 190462985 253488968 253488973#1 253488970#0 253488970#1 253489007#0"/>
    </vehicle>
    <vehicle id="veh13" type="veh_passenger" depart="39.00" departLane="best">
        <route edges="40103022 218271807#1 218271806#1 -415123460#2 -415123460#1 -415123460#0 945388804 999859779#1 53175067#0 53175067#1 53175067#2 53175067#3 53175067#4 EMk3 EMk4 39381687#1 39381687#1.4 39381687#2 39381687#3 39381687#4 39381687#5 39381687#6 39381687#7 251816568 190348536#0 5475849#1 182826554 27247873 27247875 25890468 25890467 127608716 192428988#0 192428988#2 4082985#0 253488995 189765126#0 189765126#1 189765125#0 189765125#1 189765125#2 253488997#1 150857995#0 253488999#0 253488999#1 253488999#2 253488999#3 149352823#0 149352823#1 185580084#0 185580084#1 95170297#0 53175060#1 53175060#2 724854350#0 724854350#1 95170291#1 95170291#3 95170291#4 253488954#0 53175165 53175164#0 53175164#2 188462504 208426931 319999605#1 319999605#4 319999605#5 319999605#6 319999605#7 4084169 53040717 323709010 791700779 134394675#0 134394675#1 134394675#2 134394675#3 334457598#0"/>
    </vehicle>
    <vehicle id="veh14" type="veh_passenger" depart="42.00" departLane="best">
        <route edges="24439729#0 24439729#1 -217400444 -218303475 218303447 219005868#0 219005868#1 219005869 -718155368#1 -694345941#2 24685085 280873251#0 206777521#1 23566451#0 23566451#1 335986848#2 230991290#0 251158322#1 548514765 228126460#0 316778911#1 287186149#1 251161865#1 781419324 404599852 404599853 251157594 404477284#1 43578399#0 43578399#1 150556234#1 165823636 227062822#0 227062822#1 227062822#2 97301282#0 97301282#1"/>
    </vehicle>
    <vehicle id="veh15" type="veh_passenger" depart="45.00" departLane="best">
        <route edges="184227241#2 360788356 371573875 371573874 -371574650 -121805098#2 -121805098#1 121805099 32280972#1 121805100 E0_vu3 E1_vu3 -E8_vu3 E7_vu3 -360787852#3 -360787852#2 -360787852#0 -5475488#1 23137790#2 150543795 56186952 922053740 35134167#0 35134167#2 35134167#3 276412885 276412658 189877634#0 96747828#0 56185651#3 226991208#0 228126461#1 462537200#1 462537200#1.25 249375697#1 269040901#1 189772874#0 190451409 269040904 230602993 190438083#1 269040907#0 269040907#1 204400292 251109201 187060050#2 781345962 300035524 150857432#2 93785423 253488957#0 253488944 94586305 500261498 94586298 108404028 364080659#0 364080659#1 364080660#0 364080660#1 364080660#2 364080660#3 245941530#2"/>
    </vehicle>
    <vehicle id="veh16" type="veh_passenger" depart="48.00" departLane="best">
        <route edges="415123460#0 415123460#1 415123460#2 -415123460#2 -415123460#1 -415123460#0 -150893550#1 -215971171#1 -215971171#0 -216128744#1 -216128744#0 -215971172#0 -33083165#1 -33083165#0 215971173#0 -442545005 -442545004#1 -205880175#2 -205880175#1 -205880175#0 205988835 254497023 205880172 10510838 206972874#1 214253509#1 -218025840 -24685073 148357182#3 148357183#0 148357183#1 -597172837 -365158567 257676226#1"/>
    </vehicle>
    <vehicle id="veh17" type="veh_passenger" depart="51.00" departLane="best">
        <route edges="4432610#4 4432610#5 149942614#0 149942614#1 -102486913#1 -102486913#0 -268931675#0 187060053#0 187060055 53175058 315426061 315426062 150000852 189773010#0 149996793 190451914#1 251106575 251106198#0 269040918 251106111#0 189032454 269040914 898416659 269040916 190446522 190446521#2 190443686 190443685 189768761 189768759 150853632 189765883#0 127607593 192428989 7656757 27247877 251816561 251816565#0 5475849#1 155860730#1 155860730#2 155860733#5 155860733#0 155860733#1 155860736 -155860744 -778982229#0 -121541411#0 -597172848 251816548 251820257 531113640 897661486 -603995680 531113643 251816543"/>
    </vehicle>
    <vehicle id="veh18" type="veh_passenger" depart="54.00" departLane="best">
        <route edges="31648189 320240823 31648190#0 31648190#1 739924926 -739924926 -31648190#1 -31648190#0 -402016793 -31648189 128081143 320235813#0 320239492#1 -104363155#1 24377359 56185654 56185655#0 56185655#1 189776524 56454445 187057791#0 187057791#1 187057791#2 23137790#2 150543795 56186952 922053740 35134167#0 35134167#2 35134167#3 276412885 276412658 189877634#0 96747828#0 56185651#3 226991208#0 228126461#1 462537200#1 462537200#1.25 249375697#1 269040901#1 189772874#0 190451914#1 251106575 251106198#0 269040918 251106111#0 189032454 269040914 898416659 269040916 190446522 190446521#2 190443686 190443685 189768761 189768759 127607180#0 175586471 175586471.19 251816582#2 251816583#3 251816583#3.6 4082985#0 253488995 189765126#0 189765126#1 189765125#0 189765125#1 189765125#2 27245988#1 -175558914#13 -175558914#12 -175558914#10 -175558914#9 -175558914#8 -175558914#6 -175558914#5 -175558914#4"/>
    </vehicle>
    <vehicle id="veh19" type="veh_passenger" depart="57.00" departLane="best">
        <route edges="107085664#0 107085664#1 -23055276#1 316778911#1 287186149#1 251161865#1 781419324 404599852 404599853 251157594 404477284#1 43578399#0 43578399#1 150556234#1 165823636 227062816 165828294#0 150554195#2"/>
    </vehicle>
    <vehicle id="veh20" type="veh_passenger" depart="60.00" departLane="best">
        <route edges="-218271804 218271806#1 -415123460#2 -415123460#1 -415123460#0 945388804 999859779#1 53175067#0 53175067#1 53175067#2 53175067#3 53175067#4 EMk3 EMk4 39381687#1 39381687#1.4 39381687#2 39381687#3 39381687#4 39381687#5 39381687#6 39381687#7 251816568 190348536#0 5475849#1 182826554 27247873 27247875 25890468 25890467 127608716 192428988#0 192428988#2 4082985#0 253488995 189765126#0 189765126#1 189765125#0 189765125#1 189765125#2 253488997#1 189764998 189764999#0 189764716#0 189764716#1 189764717#0 190463206#1 95170275 95170275.39 93785463#0 93785463#0.10 93785463#0.22 93785463#1 190458990#0 151788685 269017597#0 269017597#1 1085759979#0"/>
    </vehicle>
    <vehicle id="veh21" type="veh_passenger" depart="63.00" departLane="best">
        <route edges="-24534243#0 364080662#0 364080662#1 253488944 94586305 500261498 94586298 500261497 150837582#1 150837582#2 150837582#3 185579896#0 185579896#1 -185580084#1 -185580084#0 -149352823#1 -149352823#0 -253488999#3 -253488999#2 -253488999#1 -253488999#0 253489000#1 249461334#1 249461334#4 253488996 253488994 35951977#0 35951977#1 127608718#0 127608718#1 251816580 189765373 189765377 175588575#0 53175062#0 127607593 192428989 7656757 27247877 251816561 251816565#0 5475849#1 155860730#1 155860730#2 155860733#5 155860749 227205259#0 196832679 223859973 251816578 251816579 223845140 403293876 184156802#0 376865249#0 376865249#1 150540310 150540315"/>
    </vehicle>
    <vehicle id="veh22" type="veh_passenger" depart="66.00" departLane="best">
        <route edges="268931683#1.46 204207294 315426064 150549933#0 164086589 164085721#0 164085721#5 999614640 164095588#2 305325048#0 305325048#0.14 305325046 305325049#0 305325049#1 305325049#2 236994807 236994808 252024823#0 252024823#2 268931656 236995001 268931659#0 4084166 268931652 187060053#0 187060055 53175058 315426061 315426062 150000852 189773010#0 149996793 190451914#1 251106575 251106198#0 269040918 251106111#0 17977155#0 17977155#1"/>
    </vehicle>
    <vehicle id="veh23" type="veh_passenger" depart="69.00" departLane="best">
        <route edges="182826552 388155249#0 388155249#1 150851810 377851563 150851818 270666293#0 270666293#1 -150859889#1 -150859889#0 -150857433 -377853508 -377853509#1 -377853509#0 189765377 53175063#0 150851811#2 898486015 898486014#0 898486014#1 190443688#0 898480456 898465326#0 190443836 898484255 898484254 898459770 189769943#0 269040917#0 127607225#2 127607225#3 23567306#1 269040899 251158323 251158322#1 548514765 228126460#0 316778911#1 287186149#1 251161865#1 781419324 404599852 404599853 251157594 548514764#2 548514763#0 189876499 160173625 360785921#0 360785921#1 5111851 360785920#0 190340308 E2_vu3 E3_vu3 E4_vu3 399741671 471554672 184227241#0 184227241#1 184227241#2 360788356 371573875 371573874 -371574650 -121805098#2 -121805098#1 121805099 32280972#1 121805100 E0_vu3 E1_vu3 -E8_vu3"/>
    </vehicle>
    <vehicle id="veh24" type="veh_passenger" depart="72.00" departLane="best">
        <route edges="149951200#2 149951200#3 356166740#3 356166740#4 356166740#5 356166740#6 112796201#0 112796201#1 112796201#2 112796201#3 112796201#4 240321454#0 240321454#1 240321454#2 -739924927#2 -739924927#0 -739924928#1 -739924928#0 -739924926 -31648190#1 -31648190#0 -402016793 -31648189 128081143 320235813#0 320239492#1 -104363155#1 24377359 56185654 56185655#0 56185655#1 189776524 56454445 187057791#0 187057791#1 187057791#2 23137790#2 150543795 56186952 922053740 35134167#0 35134167#2 35134167#3 276412885 276412658 189877634#0 96747828#0 56185651#3 226991208#0 228126461#1 462537200#1 462537200#1.25 249375697#1 269040901#1 189772874#0 190451409 269040904 230602993 190438083#1 269040907#0 269040907#1 204400292 251109201 79683431#1"/>
    </vehicle>
    <vehicle id="veh25" type="veh_passenger" depart="75.00" departLane="best">
        <route edges="269017614 163419461 163419806#0 269017594.12 269017594.14 95170298 E19_y E19.26_y 191640848#0.11 191640848#1 95170263#0 53175060#1 53175060#2 724854350#0 724854350#1 95170291#1 95170291#3 95170291#4 253488954#0 53175163#1 253488943 253488947 253488948 253488950#0 93785434 112562464 46967473 502060953#0 502060953#1 420551407#0 182065983#1 246584302#0 246584302#2 500582850 500582851#0 500582851#1 1038224266#0 1038224266#1 255389622#0 255389622#1 255389622#2 255389622#3 255389622#4 255389622#6 255389622#7 255389622#8 255389621#0 255389621#1"/>
    </vehicle>
    <vehicle id="veh26" type="veh_passenger" depart="78.00" departLane="best">
        <route edges="-38152916#2 38152916#2 38152916#3 24620443#0 404190177#1 404190176 8067184#0 53175165 53175164#0 53175164#2 188462504 8067182#1 8067182#2 389119564#1 183656812 269017591#0 269017591#1 134396877 532149775#0 532149775#1 -24608228 334457596 334457597#0"/>
    </vehicle>
    <vehicle id="veh27" type="veh_passenger" depart="81.00" departLane="best">
        <route edges="-366073449 -24549476#1 35951977#0 35951977#1 127608718#0 127608718#1 251816580 189765373 189765377 53175063#0 150851811#2 898486015 898486014#0 898486014#1 190443688#0 898480456 898465326#0 190443836 898484255 898484254 898459770 189769943#0 269040917#0 127607225#2 127607225#3 23567306#1 269040899 190451409 269040904 230602993 190438083#1 269040907#0 269040907#1 149899941 253488977#0 42760138 149904354 460396653 218778912 268931658 42760136 268931654#1 147683979#0 147683979#2 269001617 171453050 24533443#0 24533443#1 24533418 269001613#1 176570669#1 185573957#0"/>
    </vehicle>
    <vehicle id="veh28" type="veh_passenger" depart="84.00" departLane="best">
        <route edges="E21_y8 EMk2 EMk1 E22_y8 E23_y8 EMk3 EMk4 39381687#1 39381687#1.4 39381687#2 39381687#3 39381687#4 39381687#5 39381687#6 39381687#7 251816568 190348536#0 5475849#1 182826554 27247873 27247875 25890468 25890467 199383409#2 251816560#0 35951977#1 127608718#0 127608718#1 251816580 189765373 189765377 53175063#0 150851811#2 898486015 898486014#0 898486014#1 190443688#0 898480456 898465326#0 190443836 898484255 898484254 898459770 189769943#0 269040917#0 127607225#2 127607225#3 23567306#1 269040899 190451409 269040904 230602993 190438083#1 269040907#0 269040907#1 149899941 253488977#0 42760138 149904354 460396653 218778912 268931658 42760136 268931654#1 147683979#0 147683979#2 269001617 269001621#3 269001620#0 269001619#0 692648169#0 123555933#1 123555933#2 269001612#2 269001612#3 269001612#4"/>
    </vehicle>
    <vehicle id="veh29" type="veh_passenger" depart="87.00" departLane="best">
        <route edges="246584302#0 246584302#2 500582850 500582851#0 500582851#1 1038224266#0 1038224266#1 255389622#0 255389622#1 255389622#2 255389622#3 255389622#4 255389622#6 255389622#7 255389622#8 23263249#0 23263249#1 4403852#1 4403852#2 4403852#3 4403852#4 628505595#0 187060055 53175058 315426061 315426062 204400292 251109201 187060050#2 781345962 300035524 150857432#2 93785423 253488957#0 253488944 94586305 500261498 94586298 500261497 150837582#1 150837582#2 150837582#3 185579896#0 185579896#1 53175059#1 1081335276 187061084 187061084.80 187061084.80.24 151785784#0 151785784#0.3 151785784#0.10 151785784#1 151785784#2 253489003 253489002#2 29020152"/>
    </vehicle>
    <vehicle id="veh30" type="veh_passenger" depart="90.00" departLane="best">
        <route edges="43578399#1 150556234#1 165823635 626345991 181337926#0 181337926#1 548514763#0 189876499 160173625 360785921#0 360785921#1 5111851 360785920#0 190340308 E2_vu3 E3_vu3 E4_vu3 399741671 190340312 216879571 674280493 102774826 102749569 4474685 85287424 187060058#0 187060058#3 187060057#0 42760132 371300204#0"/>
    </vehicle>
    <vehicle id="veh31" type="veh_passenger" depart="93.00" departLane="best">
        <route edges="1081335276 187061084 187061084.80 E18_y E18.17 93785348 55608997 53573995#2 189764669#0 249461334#1 249461334#4 253488996 253488994 35951977#0 35951977#1 127608718#0 127608718#1 251816580 189765373 189765377 53175063#0 175580619#1 -240348395#7 -240348395#6 -240348395#5 -240348395#4 -240348395#3 -240348395#2 -240348395#1 -240348395#0 -366073485#1 -150851814#5 -150851814#4 -150851814#3 -150851814#2 -150851814#1"/>
    </vehicle>
    <vehicle id="veh32" type="veh_passenger" depart="96.00" departLane="best">
        <route edges="150896688#0 150896688#1 150896688#2 150896688#3 150896688#4 175558914#9 175558914#10 175558914#12 175558914#13 175564779#0 189764998 189764669#0 249461334#1 249461334#4 253488996 253488994 35951977#0 35951977#1 127608718#0 127608718#1 251816580 189765373 189765377 53175063#0 150851811#2 898486015 898486014#0 898486014#1 190443688#0 898480456 898465326#0 190443836 898484255 898484254 898459770 189769943#0 269040917#0 127607225#2 127607225#3 23567306#1 269040899 251158323 251158322#1 548514765 228126460#0 316778911#1 287186149#1 251161865#1 781419324 404599852 404599853 251157594 548514764#2 548514763#0 189876499 160173625 360785921#0 360785921#1 5111851 360785920#0 190340308 E2_vu3 E3_vu3 E4_vu3 399741671 190340312 216879571 674280493 102774826 102749569 359947001 187057793#0 190340309 31648322#0 31648322#1 31648322#2 31648189 320240823 31648190#0 31648190#1 739924926 739924928#0 739924928#1 35014371#0 35014371#3 35014371#4 35014371#5 149951202#0 149951202#1 149951202#2 149951202#3 149951202#4 149951202#5 149951202#6"/>
    </vehicle>
    <vehicle id="veh33" type="veh_passenger" depart="99.00" departLane="best">
        <route edges="-E3_y -127606907#3 -127606907#2 -127606907#1 -127606907#0 -17977155#1 -17977155#0 127607225#2 127607225#3 23567306#1 269040899 251158323 251158322#1 548514765 228126460#0 316778911#1 287186149#1 251161865#1 781419324 404599852 404599853 251157594 548514764#2 548514763#0 189876499 160173625 360785921#0 360785921#1 5111851 360785920#0 190340308 E2_vu3 E3_vu3 E4_vu3 399741671 190340312 216879571 674280493 102774826 102749569 359947001 187057793#0 190340309 320252264 85287421#0 85287421#1"/>
    </vehicle>
    <vehicle id="veh34" type="veh_passenger" depart="102.00" departLane="best">
        <route edges="475679571#3 402016820#0 187060058#0 187060058#3 187060057#0 42760132 85270645 320185351 320185500#0 320185500#1 270655640 270655641 189899508 360065008 268931672#0 268931670 268931671 268931671.29 4235244 999614640 164095588#2 305325048#0 305325048#0.14 305325046 305325049#0 305325049#1 305325049#2 236994807 236994808 252024823#0 252024823#2 268931656 236995001 268931659#0 4084166 268931652 187060053#0 187060055 53175058 315426061 315426062 204400292 251109201 187060050#2 781345962 300035524 150857432#2 93785423 253488957#0 253488944 94586305 500261498 94586298 500261497 150837582#1 150837582#2 150837582#3 185579896#0 185579896#1 53175059#1 1081335276 187061084 187061084.80 E18_y E18.17 93785348 55608997 95170292#1 95170292#2 190462985 253488968 150896690#1 150896688#0 150896688#1 150896688#2 150896688#3"/>
    </vehicle>
    <vehicle id="veh35" type="veh_passenger" depart="105.00" departLane="best">
        <route edges="270655638 268931672#0 268931670 268931671 268931671.29 4235244 999614640 164095588#2 305325048#0 305325048#0.14 305325046 305325049#0 305325049#1 305325049#2 236994807 236994808 252024823#0 252024823#2 268931656 236995001 268931659#0 4084166 268931652 187060053#0 187060055 53175058 315426061 315426062 204400292 251109201 187060050#2 781345962 300035524 150857432#2 93785423 253488957#0 253488944 94586305 500261498 94586298 500261497 150837582#1 150837582#2 150837582#3 185579896#0 185579896#1 53175059#1 1081335276 187061084 187061084.80 E18_y E18.17 93785348 55608997 53573995#2 189764669#0"/>
    </vehicle>
    <vehicle id="veh36" type="veh_passenger" depart="108.00" departLane="best">
        <route edges="57846800#1 5073616#3 108404027#4 108404033#1 108404033#2 165720108#2.22 165720108#3 165720108#4 165720108#5 165720108#6 165720108#7 165720108#8 165720108#9 35951507#1 25890650#1 249461334#4 253488996 253488994 35951977#0 35951977#1 127608718#0 127608718#1 251816580 189765373 189765377 175588575#0 53175062#0 127607593 192428989 7656757 27247877 251816561 251816565#0 25586776 251816566#0 251816566#1 251816566#2 251816566#3 251816566#4 598266300#0 380637201 23148901#0 23148901#1 23148901#2 466081172 23148902#6 -215925852#1 -215925852#0 -215925850#1 215925850#1"/>
    </vehicle>
    <vehicle id="veh37" type="veh_passenger" depart="111.00" departLane="best">
        <route edges="149898017#0 150000852 189773010#0 149996793 190451914#1 251106575 251106198#0 269040918 251106111#0 189032454 269040914 898416659 269040916 190446522 190446521#2 190443686 190443685 189768761 189768759 127607180#0"/>
    </vehicle>
    <vehicle id="veh38" type="veh_passenger" depart="114.00" departLane="best">
        <route edges="24916962#0 24916962#1 24916962#2 332237966 -150770614#1 269040916 190446522 190446521#2 190443686 190443685 189768761 189768759 127607180#0 175586471 175586471.19 251816582#2 251816583#3 251816583#3.6 4082985#0 253488995 189765126#0 189765126#1 189765125#0 189765125#1 189765125#2 253488997#1 150857995#0 253488999#0 253488999#1 253488999#2 253488999#3 149352823#0 149352823#1"/>
    </vehicle>
    <vehicle id="veh39" type="veh_passenger" depart="117.00" departLane="best">
        <route edges="251816590 -285011811#1 251816548 227205258#1 229619678#0 229619678#1 229619682#0 229619682#1 229591994#0 229619684 205880175#0 205880175#1 205880175#2 442545004#1 442545005 -215971173#0 33083165#0 33083165#1 215971172#0 215971172#1 216128744#1 215971171#0 215971171#1 150893550#1 945388804 999859779#1 53175067#0 53175067#1"/>
    </vehicle>
    <vehicle id="veh40" type="veh_passenger" depart="120.00" departLane="best">
        <route edges="189765125#0 189765125#1 189765125#2 253488997#1 189764998 189764669#0 249461334#1 249461334#4 253488996 253488994 35951977#0 35951977#1 127608718#0 127608718#1 251816580 189765373 189765377 53175063#0 150851811#2 898486015 898486014#0 898486014#1 190443688#0 898480456 898465326#0 190443836 898484255 898484254 898459770 189769943#0 269040917#0 127607225#2 127607225#3 23567306#1 269040899 251158323 251158322#1 548514765 228126460#0 316778911#1 287186149#1 251161865#1 781419324 404599852 7980452#1 7980452#2 107085650 107085647#0 107085647#1"/>
    </vehicle>
    <vehicle id="veh41" type="veh_passenger" depart="123.00" departLane="best">
        <route edges="-240321445#1 -240321445#0 240321447#0 240321447#1 -149951202#7 -149951202#6 -149951202#5 -149951202#4 -149951202#3 -149951202#2 -149951202#1 -149951202#0 -35014371#5 -35014371#4 -35014371#3 -35014371#0 -739924928#1 -739924928#0 -739924926 -31648190#1 -31648190#0 -402016793 -31648189 128081143 320235813#0 320239492#1 -104363155#1 24377359 56185654 56185655#0 56185655#1 189776524 56454445 187057791#0 187057791#1 187057791#2 471554672 184227241#0 184227241#1 184227241#2 184227241#4 292947985 184227242 25586697 812970254#0 172336783#0 270655622 251816537 71256192 251816540 223859972 251816539 251816541 227205268#1 227205269 227205269.83 251816590 -285011811#1 597172848 121541411#0 121541411#1 178935171#0 178935171#1 -171793097#0 171793097#0 171793097#1 -178935171#0"/>
    </vehicle>
    <vehicle id="veh42" type="veh_passenger" depart="126.00" departLane="best">
        <route edges="-24909020#2 -24909020#1 -24909020#0 -33083418#1 150851814#4 150851814#5 38152916#1 38152916#2 38152916#3 24620443#0 404190177#1 404190176 8067184#0 53175165 53175164#0 53175164#2 188462504 -185352101 -163419466#7 -163419466#4 -163419466#3 -163419466#1 266188220#0 266188220#1"/>
    </vehicle>
    <vehicle id="veh43" type="veh_passenger" depart="129.00" departLane="best">