<?xml version="1.0" encoding="UTF-8"?>

<!-- generated on 2023-03-06 16:03:44.409570 by randomTrips.py v1_14_1+0000-f654d7b963e
<configuration>
    <end value="3600"/>
    <net-file value="osm.net.xml"/>
    <period value="6.0"/>
    <persontrips value="True"/>
    <route-file value="osm.person.rou.xml"/>
    <trip-attributes value="modes=&quot;public&quot;"/>
    <output-trip-file value="osm.person.trips.xml"/>
    <prefix value="per"/>
    <validate value="True"/>
    <vehicle-class value="pedestrian"/>
</configuration>
-->

<!-- generated on 2023-03-06 16:03:40 by Eclipse SUMO duarouter Version 1.14.1
<configuration xmlns:xsi="http://www.w3.org/2001/XMLSchema-instance" xsi:noNamespaceSchemaLocation="http://sumo.dlr.de/xsd/duarouterConfiguration.xsd">

    <input>
        <net-file value="osm.net.xml"/>
        <route-files value="osm.person.trips.xml"/>
    </input>

    <output>
        <output-file value="osm.person.trips.xml.tmp"/>
        <alternatives-output value="NUL"/>
        <write-trips value="true"/>
    </output>

    <time>
        <begin value="0"/>
        <end value="3600"/>
    </time>

    <report>
        <no-warnings value="true"/>
        <ignore-errors value="true"/>
        <no-step-log value="true"/>
    </report>

</configuration>
-->

<routes xmlns:xsi="http://www.w3.org/2001/XMLSchema-instance" xsi:noNamespaceSchemaLocation="http://sumo.dlr.de/xsd/routes_file.xsd">
    <vType id="per_pedestrian" vClass="pedestrian"/>
    <person id="per0" type="per_pedestrian" depart="0.00">
        <personTrip from="268931658" to="-139692115#5" modes="public" walkFactor="0.75"/>
    </person>
    <person id="per1" type="per_pedestrian" depart="6.00">
        <personTrip from="-842458714" to="-431889839" modes="public" walkFactor="0.75"/>
    </person>
    <person id="per2" type="per_pedestrian" depart="12.00">
        <personTrip from="349836788" to="279980676" modes="public" walkFactor="0.75"/>
    </person>
    <person id="per3" type="per_pedestrian" depart="18.00">
        <personTrip from="53175159#2" to="-216146981#2" modes="public" walkFactor="0.75"/>
    </person>
    <person id="per4" type="per_pedestrian" depart="24.00">
        <personTrip from="165069584" to="-150549253#4" modes="public" walkFactor="0.75"/>
    </person>
    <person id="per5" type="per_pedestrian" depart="30.00">
        <personTrip from="-420551633#1" to="208426933#0" modes="public" walkFactor="0.75"/>
    </person>
    <person id="per6" type="per_pedestrian" depart="36.00">
        <personTrip from="-149942614#1" to="-374615109" modes="public" walkFactor="0.75"/>
    </person>
    <person id="per7" type="per_pedestrian" depart="42.00">
        <personTrip from="27244032" to="228002788" modes="public" walkFactor="0.75"/>
    </person>
    <person id="per8" type="per_pedestrian" depart="48.00">
        <personTrip from="-420551649" to="24608228" modes="public" walkFactor="0.75"/>
    </person>
    <person id="per9" type="per_pedestrian" depart="54.00">
        <personTrip from="401214865" to="-105605386" modes="public" walkFactor="0.75"/>
    </person>
    <person id="per10" type="per_pedestrian" depart="60.00">
        <personTrip from="397714305#0" to="300056810" modes="public" walkFactor="0.75"/>
    </person>
    <person id="per11" type="per_pedestrian" depart="66.00">
        <personTrip from="122000766#0" to="-28143932" modes="public" walkFactor="0.75"/>
    </person>
    <person id="per12" type="per_pedestrian" depart="72.00">
        <personTrip from="854917825" to="119894682" modes="public" walkFactor="0.75"/>
    </person>
    <person id="per13" type="per_pedestrian" depart="78.00">
        <personTrip from="-224885819#0" to="-229591993#2" modes="public" walkFactor="0.75"/>
    </person>
    <person id="per15" type="per_pedestrian" depart="90.00">
        <personTrip from="40103022" to="336500791" modes="public" walkFactor="0.75"/>
    </person>
    <person id="per16" type="per_pedestrian" depart="96.00">
        <personTrip from="227062816" to="903554045" modes="public" walkFactor="0.75"/>
    </person>
    <person id="per17" type="per_pedestrian" depart="102.00">
        <personTrip from="150694609" to="23137793#4" modes="public" walkFactor="0.75"/>
    </person>
    <person id="per18" type="per_pedestrian" depart="108.00">
        <personTrip from="42465480" to="254498204" modes="public" walkFactor="0.75"/>
    </person>
    <person id="per19" type="per_pedestrian" depart="114.00">
        <personTrip from="461193238#0" to="240679919" modes="public" walkFactor="0.75"/>
    </person>
    <person id="per20" type="per_pedestrian" depart="120.00">
        <personTrip from="305824779#1" to="-163235128" modes="public" walkFactor="0.75"/>
    </person>
    <person id="per22" type="per_pedestrian" depart="132.00">
        <personTrip from="-210582468#7" to="-44828412#5" modes="public" walkFactor="0.75"/>
    </person>
    <person id="per23" type="per_pedestrian" depart="138.00">
        <personTrip from="-232947463#1" to="-86202842" modes="public" walkFactor="0.75"/>
    </person>
    <person id="per24" type="per_pedestrian" depart="144.00">
        <personTrip from="267411754#4" to="143384153" modes="public" walkFactor="0.75"/>
    </person>
    <person id="per26" type="per_pedestrian" depart="156.00">
        <personTrip from="-739924928#0" to="744253801#1" modes="public" walkFactor="0.75"/>
    </person>
    <person id="per27" type="per_pedestrian" depart="162.00">
        <personTrip from="27134173" to="253539339#3" modes="public" walkFactor="0.75"/>
    </person>
    <person id="per28" type="per_pedestrian" depart="168.00">
        <personTrip from="-319999605#4" to="335980510#2" modes="public" walkFactor="0.75"/>
    </person>
    <person id="per29" type="per_pedestrian" depart="174.00">
        <personTrip from="-300068767#5" to="150694611#7" modes="public" walkFactor="0.75"/>
    </person>
    <person id="per30" type="per_pedestrian" depart="180.00">
        <personTrip from="97301289#1" to="268931671" modes="public" walkFactor="0.75"/>
    </person>
    <person id="per31" type="per_pedestrian" depart="186.00">
        <personTrip from="232947458#1" to="28646388#3" modes="public" walkFactor="0.75"/>
    </person>
    <person id="per32" type="per_pedestrian" depart="192.00">
        <personTrip from="443046537#5" to="376865290#1" modes="public" walkFactor="0.75"/>
    </person>
    <person id="per33" type="per_pedestrian" depart="198.00">
        <personTrip from="-4432606#10" to="-150554198#7" modes="public" walkFactor="0.75"/>
    </person>
    <person id="per34" type="per_pedestrian" depart="204.00">
        <personTrip from="107085643" to="-744289338#1" modes="public" walkFactor="0.75"/>
    </person>
    <person id="per35" type="per_pedestrian" depart="210.00">
        <personTrip from="-39649666" to="773744301" modes="public" walkFactor="0.75"/>
    </person>
    <person id="per36" type="per_pedestrian" depart="216.00">
        <personTrip from="499675996#3" to="1064398602#0" modes="public" walkFactor="0.75"/>
    </person>
    <person id="per37" type="per_pedestrian" depart="222.00">
        <personTrip from="27244832#12" to="151791264#3" modes="public" walkFactor="0.75"/>
    </person>
    <person id="per38" type="per_pedestrian" depart="228.00">
        <personTrip from="64973069#3" to="183657245#1" modes="public" walkFactor="0.75"/>
    </person>
    <person id="per39" type="per_pedestrian" depart="234.00">
        <personTrip from="-69851729#5" to="-499676001#2" modes="public" walkFactor="0.75"/>
    </person>
    <person id="per40" type="per_pedestrian" depart="240.00">
        <personTrip from="235389175#1" to="-690790196" modes="public" walkFactor="0.75"/>
    </person>
    <person id="per42" type="per_pedestrian" depart="252.00">
        <personTrip from="162513807" to="-420551633#5" modes="public" walkFactor="0.75"/>
    </person>
    <person id="per43" type="per_pedestrian" depart="258.00">
        <personTrip from="E7_y" to="211731682" modes="public" walkFactor="0.75"/>
    </person>
    <person id="per44" type="per_pedestrian" depart="264.00">
        <personTrip from="-219005869" to="-163773296#3" modes="public" walkFactor="0.75"/>
    </person>
    <person id="per45" type="per_pedestrian" depart="270.00">
        <personTrip from="-240679945#0" to="257675380#1" modes="public" walkFactor="0.75"/>
    </person>
    <person id="per46" type="per_pedestrian" depart="276.00">
        <personTrip from="39316795#1" to="165069586#1" modes="public" walkFactor="0.75"/>
    </person>
    <person id="per48" type="per_pedestrian" depart="288.00">
        <personTrip from="E3_vu3" to="223139512#5" modes="public" walkFactor="0.75"/>
    </person>
    <person id="per49" type="per_pedestrian" depart="294.00">
        <personTrip from="901506733#1" to="461153870" modes="public" walkFactor="0.75"/>
    </person>
    <person id="per50" type="per_pedestrian" depart="300.00">
        <personTrip from="-108404028" to="325363711#1" modes="public" walkFactor="0.75"/>
    </person>
    <person id="per51" type="per_pedestrian" depart="306.00">
        <personTrip from="284813738#3" to="227062821#0" modes="public" walkFactor="0.75"/>
    </person>
    <person id="per52" type="per_pedestrian" depart="312.00">
        <personTrip from="-739924927#2" to="268931687" modes="public" walkFactor="0.75"/>
    </person>
    <person id="per53" type="per_pedestrian" depart="318.00">
        <personTrip from="-24470195#1" to="172808749" modes="public" walkFactor="0.75"/>
    </person>
    <person id="per54" type="per_pedestrian" depart="324.00">
        <personTrip from="180598060#8" to="843681078#1" modes="public" walkFactor="0.75"/>
    </person>
    <person id="per55" type="per_pedestrian" depart="330.00">
        <personTrip from="499675989#2" to="-69721553" modes="public" walkFactor="0.75"/>
    </person>
    <person id="per57" type="per_pedestrian" depart="342.00">
        <personTrip from="628505596" to="48244127#1" modes="public" walkFactor="0.75"/>
    </person>
    <person id="per58" type="per_pedestrian" depart="348.00">
        <personTrip from="1012829104#1" to="268877847" modes="public" walkFactor="0.75"/>
    </person>
    <person id="per59" type="per_pedestrian" depart="354.00">
        <personTrip from="253539339#1" to="-27287268" modes="public" walkFactor="0.75"/>
    </person>
    <person id="per60" type="per_pedestrian" depart="360.00">
        <personTrip from="360248215#1" to="227441541" modes="public" walkFactor="0.75"/>
    </person>
    <person id="per61" type="per_pedestrian" depart="366.00">
        <personTrip from="376865396#0" to="223139847" modes="public" walkFactor="0.75"/>
    </person>
    <person id="per62" type="per_pedestrian" depart="372.00">
        <personTrip from="-101134190#0" to="1085759979#1" modes="public" walkFactor="0.75"/>
    </person>
    <person id="per63" type="per_pedestrian" depart="378.00">
        <personTrip from="-129556171" to="724854349#0" modes="public" walkFactor="0.75"/>
    </person>
    <person id="per64" type="per_pedestrian" depart="384.00">
        <personTrip from="502060954" to="431889849#1" modes="public" walkFactor="0.75"/>
    </person>
    <person id="per65" type="per_pedestrian" depart="390.00">
        <personTrip from="1034914721" to="-175563728#4" modes="public" walkFactor="0.75"/>
    </person>
    <person id="per66" type="per_pedestrian" depart="396.00">
        <personTrip from="500582851#0" to="79721420#1" modes="public" walkFactor="0.75"/>
    </person>
    <person id="per67" type="per_pedestrian" depart="402.00">
        <personTrip from="-215971175#1" to="190812637#1" modes="public" walkFactor="0.75"/>
    </person>
    <person id="per68" type="per_pedestrian" depart="408.00">
        <personTrip from="-191128494" to="360248187#5" modes="public" walkFactor="0.75"/>
    </person>
    <person id="per69" type="per_pedestrian" depart="414.00">
        <personTrip from="364080659#0" to="-255389621#3" modes="public" walkFactor="0.75"/>
    </person>
    <person id="per70" type="per_pedestrian" depart="420.00">
        <personTrip from="188287272" to="230571244" modes="public" walkFactor="0.75"/>
    </person>
    <person id="per71" type="per_pedestrian" depart="426.00">
        <personTrip from="-69851760#0" to="496350066" modes="public" walkFactor="0.75"/>
    </person>
    <person id="per72" type="per_pedestrian" depart="432.00">
        <personTrip from="165343935" to="-398942400" modes="public" walkFactor="0.75"/>
    </person>
    <person id="per73" type="per_pedestrian" depart="438.00">
        <personTrip from="227441540" to="336875060#0" modes="public" walkFactor="0.75"/>
    </person>
    <person id="per74" type="per_pedestrian" depart="444.00">
        <personTrip from="-376865358" to="104229437#0" modes="public" walkFactor="0.75"/>
    </person>
    <person id="per75" type="per_pedestrian" depart="450.00">
        <personTrip from="E21_y8" to="27244031" modes="public" walkFactor="0.75"/>
    </person>
    <person id="per76" type="per_pedestrian" depart="456.00">
        <personTrip from="172853474" to="215971176#4" modes="public" walkFactor="0.75"/>
    </person>
    <person id="per77" type="per_pedestrian" depart="462.00">
        <personTrip from="-251987384#1" to="-43702375#0" modes="public" walkFactor="0.75"/>
    </person>
    <person id="per78" type="per_pedestrian" depart="468.00">
        <personTrip from="121817389#1" to="24608195#1" modes="public" walkFactor="0.75"/>
    </person>
    <person id="per79" type="per_pedestrian" depart="474.00">
        <personTrip from="-4432606#7" to="-420551644" modes="public" walkFactor="0.75"/>
    </person>
    <person id="per80" type="per_pedestrian" depart="480.00">
        <personTrip from="-193582128#2" to="263208981#2" modes="public" walkFactor="0.75"/>
    </person>
    <person id="per81" type="per_pedestrian" depart="486.00">
        <personTrip from="-4432606#1" to="60169838" modes="public" walkFactor="0.75"/>
    </person>
    <person id="per82" type="per_pedestrian" depart="492.00">
        <personTrip from="46022378#3" to="-193582128#0" modes="public" walkFactor="0.75"/>
    </person>
    <person id="per83" type="per_pedestrian" depart="498.00">
        <personTrip from="-459177084" to="27391705#0" modes="public" walkFactor="0.75"/>
    </person>
    <person id="per85" type="per_pedestrian" depart="510.00">
        <personTrip from="741029709#0" to="237278681#2" modes="public" walkFactor="0.75"/>
    </person>
    <person id="per86" type="per_pedestrian" depart="516.00">
        <personTrip from="187628743#1" to="38435460" modes="public" walkFactor="0.75"/>
    </person>
    <person id="per87" type="per_pedestrian" depart="522.00">
        <personTrip from="40103024" to="-363919281" modes="public" walkFactor="0.75"/>
    </person>
    <person id="per88" type="per_pedestrian" depart="528.00">
        <personTrip from="-230152974" to="169690255" modes="public" walkFactor="0.75"/>
    </person>
    <person id="per89" type="per_pedestrian" depart="534.00">
        <personTrip from="165823633#0" to="185578378#3" modes="public" walkFactor="0.75"/>
    </person>
    <person id="per90" type="per_pedestrian" depart="540.00">
        <personTrip from="335980510#1" to="27429648#1" modes="public" walkFactor="0.75"/>
    </person>
    <person id="per91" type="per_pedestrian" depart="546.00">
        <personTrip from="95170292#1" to="-230602997#2" modes="public" walkFactor="0.75"/>
    </person>
    <person id="per92" type="per_pedestrian" depart="552.00">
        <personTrip from="162515571" to="122000756" modes="public" walkFactor="0.75"/>
    </person>
    <person id="per93" type="per_pedestrian" depart="558.00">
        <personTrip from="461177220#1" to="-51909568#0" modes="public" walkFactor="0.75"/>
    </person>
    <person id="per94" type="per_pedestrian" depart="564.00">
        <personTrip from="-363826450#1" to="175580619#1" modes="public" walkFactor="0.75"/>
    </person>
    <person id="per95" type="per_pedestrian" depart="570.00">
        <personTrip from="165069584" to="-867790500#1" modes="public" walkFactor="0.75"/>
    </person>
    <person id="per96" type="per_pedestrian" depart="576.00">
        <personTrip from="-531548528" to="69727096" modes="public" walkFactor="0.75"/>
    </person>
    <person id="per97" type="per_pedestrian" depart="582.00">
        <personTrip from="175491099" to="461176705#1" modes="public" walkFactor="0.75"/>
    </person>
    <person id="per98" type="per_pedestrian" depart="588.00">
        <personTrip from="230602993" to="-165825316#0" modes="public" walkFactor="0.75"/>
    </person>
    <person id="per99" type="per_pedestrian" depart="594.00">
        <personTrip from="En3" to="43866170#1" modes="public" walkFactor="0.75"/>
    </person>
    <person id="per100" type="per_pedestrian" depart="600.00">
        <personTrip from="898411444#0" to="69851760#0" modes="public" walkFactor="0.75"/>
    </person>
    <person id="per101" type="per_pedestrian" depart="606.00">
        <personTrip from="44828427#3" to="-305828580" modes="public" walkFactor="0.75"/>
    </person>
    <person id="per103" type="per_pedestrian" depart="618.00">
        <personTrip from="162513824#1" to="-178081901#3" modes="public" walkFactor="0.75"/>
    </person>
    <person id="per105" type="per_pedestrian" depart="630.00">
        <personTrip from="-69851760#1" to="38435455" modes="public" walkFactor="0.75"/>
    </person>
    <person id="per106" type="per_pedestrian" depart="636.00">
        <personTrip from="181503324" to="165343934" modes="public" walkFactor="0.75"/>
    </person>
    <person id="per107" type="per_pedestrian" depart="642.00">
        <personTrip from="854928372" to="E2_n2" modes="public" walkFactor="0.75"/>
    </person>
    <person id="per108" type="per_pedestrian" depart="648.00">
        <personTrip from="232947445" to="320252634#10" modes="public" walkFactor="0.75"/>
    </person>
    <person id="per109" type="per_pedestrian" depart="654.00">
        <personTrip from="-27610892#1" to="100442337#6" modes="public" walkFactor="0.75"/>
    </person>
    <person id="per111" type="per_pedestrian" depart="666.00">
        <personTrip from="227991189#5" to="356166741#1" modes="public" walkFactor="0.75"/>
    </person>
    <person id="per112" type="per_pedestrian" depart="672.00">
        <personTrip from="-175563641#0" to="24534083#1" modes="public" walkFactor="0.75"/>
    </person>
    <person id="per115" type="per_pedestrian" depart="690.00">
        <personTrip from="-210585864#0" to="-35948955#1" modes="public" walkFactor="0.75"/>
    </person>
    <person id="per116" type="per_pedestrian" depart="696.00">
        <personTrip from="25099320#3" to="276261571#13" modes="public" walkFactor="0.75"/>
    </person>
    <person id="per117" type="per_pedestrian" depart="702.00">
        <personTrip from="-44828708" to="-24922594#0" modes="public" walkFactor="0.75"/>
    </person>
    <person id="per119" type="per_pedestrian" depart="714.00">
        <personTrip from="25099320#13" to="254499198#1" modes="public" walkFactor="0.75"/>
    </person>
    <person id="per120" type="per_pedestrian" depart="720.00">
        <personTrip from="164044469" to="24533418" modes="public" walkFactor="0.75"/>
    </person>
    <person id="per121" type="per_pedestrian" depart="726.00">
        <personTrip from="217387509" to="741029704" modes="public" walkFactor="0.75"/>
    </person>
    <person id="per123" type="per_pedestrian" depart="738.00">
        <personTrip from="-459199910" to="151791264#5" modes="public" walkFactor="0.75"/>
    </person>
    <person id="per124" type="per_pedestrian" depart="744.00">
        <personTrip from="27409078#6" to="1020928338" modes="public" walkFactor="0.75"/>
    </person>
    <person id="per126" type="per_pedestrian" depart="756.00">
        <personTrip from="-196545809" to="183055815" modes="public" walkFactor="0.75"/>
    </person>
    <person id="per127" type="per_pedestrian" depart="762.00">
        <personTrip from="En0" to="E3_vu3" modes="public" walkFactor="0.75"/>
    </person>
    <person id="per128" type="per_pedestrian" depart="768.00">
        <personTrip from="-201494611#0" to="-402016774" modes="public" walkFactor="0.75"/>
    </person>
    <person id="per129" type="per_pedestrian" depart="774.00">
        <personTrip from="-69851760#1" to="734101731" modes="public" walkFactor="0.75"/>
    </person>
    <person id="per130" type="per_pedestrian" depart="780.00">
        <personTrip from="5073608#1" to="50283051" modes="public" walkFactor="0.75"/>
    </person>
    <person id="per132" type="per_pedestrian" depart="792.00">
        <personTrip from="436096922#0" to="305823737#0" modes="public" walkFactor="0.75"/>
    </person>
    <person id="per133" type="per_pedestrian" depart="798.00">
        <personTrip from="254235307#5" to="967938217" modes="public" walkFactor="0.75"/>
    </person>
    <person id="per134" type="per_pedestrian" depart="804.00">
        <personTrip from="27244260#4" to="-107085647#3" modes="public" walkFactor="0.75"/>
    </person>
    <person id="per135" type="per_pedestrian" depart="810.00">
        <personTrip from="409255885#1" to="1020667877" modes="public" walkFactor="0.75"/>
    </person>
    <person id="per136" type="per_pedestrian" depart="816.00">
        <personTrip from="27245696" to="749486251#1" modes="public" walkFactor="0.75"/>
    </person>
    <person id="per137" type="per_pedestrian" depart="822.00">
        <personTrip from="-267265184#0" to="-245939113#2" modes="public" walkFactor="0.75"/>
    </person>
    <person id="per139" type="per_pedestrian" depart="834.00">
        <personTrip from="-80599432#0" to="253488943" modes="public" walkFactor="0.75"/>
    </person>
    <person id="per140" type="per_pedestrian" depart="840.00">
        <personTrip from="320190186#1" to="-37811442#0" modes="public" walkFactor="0.75"/>
    </person>
    <person id="per141" type="per_pedestrian" depart="846.00">
        <personTrip from="266236584" to="-69727049#0" modes="public" walkFactor="0.75"/>
    </person>
    <person id="per142" type="per_pedestrian" depart="852.00">
        <personTrip from="191128494" to="60169838" modes="public" walkFactor="0.75"/>
    </person>
    <person id="per144" type="per_pedestrian" depart="864.00">
        <personTrip from="165823633#0" to="-85287421#1" modes="public" walkFactor="0.75"/>
    </person>
    <person id="per145" type="per_pedestrian" depart="870.00">
        <personTrip from="-103170336" to="366073484#1" modes="public" walkFactor="0.75"/>
    </person>
    <person id="per146" type="per_pedestrian" depart="876.00">
        <personTrip from="268877829" to="-659292414" modes="public" walkFactor="0.75"/>
    </person>
    <person id="per147" type="per_pedestrian" depart="882.00">
        <personTrip from="351143414#1" to="231285503#3" modes="public" walkFactor="0.75"/>
    </person>
    <person id="per148" type="per_pedestrian" depart="888.00">
        <personTrip from="169684595#2" to="-107085662#2" modes="public" walkFactor="0.75"/>
    </person>
    <person id="per149" type="per_pedestrian" depart="894.00">
        <personTrip from="-205880172" to="520824524#3" modes="public" walkFactor="0.75"/>
    </person>
    <person id="per150" type="per_pedestrian" depart="900.00">
        <personTrip from="600447897" to="229239400" modes="public" walkFactor="0.75"/>
    </person>
    <person id="per151" type="per_pedestrian" depart="906.00">
        <personTrip from="43702375#3" to="24490894" modes="public" walkFactor="0.75"/>
    </person>
    <person id="per152" type="per_pedestrian" depart="912.00">
        <personTrip from="-27245133#1" to="-254957236#0" modes="public" walkFactor="0.75"/>
    </person>
    <person id="per153" type="per_pedestrian" depart="918.00">
        <personTrip from="103864417#0" to="57016160#0" modes="public" walkFactor="0.75"/>
    </person>
    <person id="per154" type="per_pedestrian" depart="924.00">
        <personTrip from="395673319" to="461153870" modes="public" walkFactor="0.75"/>
    </person>
    <person id="per155" type="per_pedestrian" depart="930.00">
        <personTrip from="566706097" to="-39649661" modes="public" walkFactor="0.75"/>
    </person>
    <person id="per156" type="per_pedestrian" depart="936.00">
        <personTrip from="-524765355" to="-235391527#2" modes="public" walkFactor="0.75"/>
    </person>
    <person id="per157" type="per_pedestrian" depart="942.00">
        <personTrip from="377709918" to="53016881#1" modes="public" walkFactor="0.75"/>
    </person>
    <person id="per158" type="per_pedestrian" depart="948.00">
        <personTrip from="163235126#0" to="254952129#1" modes="public" walkFactor="0.75"/>
    </person>
    <person id="per159" type="per_pedestrian" depart="954.00">
        <personTrip from="-27610890" to="72594728#1" modes="public" walkFactor="0.75"/>
    </person>
    <person id="per160" type="per_pedestrian" depart="960.00">
        <personTrip from="464136952#0" to="92156243#0" modes="public" walkFactor="0.75"/>
    </person>
    <person id="per162" type="per_pedestrian" depart="972.00">
        <personTrip from="-139692115#3" to="349836789" modes="public" walkFactor="0.75"/>
    </person>
    <person id="per163" type="per_pedestrian" depart="978.00">
        <personTrip from="110394238" to="729913426" modes="public" walkFactor="0.75"/>
    </person>
    <person id="per164" type="per_pedestrian" depart="984.00">
        <personTrip from="39649664#1" to="464136947" modes="public" walkFactor="0.75"/>
    </person>
    <person id="per166" type="per_pedestrian" depart="996.00">
        <personTrip from="387015281" to="-240679912" modes="public" walkFactor="0.75"/>
    </person>
    <person id="per167" type="per_pedestrian" depart="1002.00">
        <personTrip from="496347543" to="459199910" modes="public" walkFactor="0.75"/>
    </person>
    <person id="per168" type="per_pedestrian" depart="1008.00">
        <personTrip from="-429104325#0" to="409050024" modes="public" walkFactor="0.75"/>
    </person>
    <person id="per169" type="per_pedestrian" depart="1014.00">
        <personTrip from="184478074#0" to="1034115245#1" modes="public" walkFactor="0.75"/>
    </person>
    <person id="per170" type="per_pedestrian" depart="1020.00">
        <personTrip from="39381687#1.4" to="-4404114#1" modes="public" walkFactor="0.75"/>
    </person>
    <person id="per171" type="per_pedestrian" depart="1026.00">
        <personTrip from="-134424675#0" to="-366073455#0" modes="public" walkFactor="0.75"/>
    </person>
    <person id="per172" type="per_pedestrian" depart="1032.00">
        <personTrip from="1098919001#29" to="464136950" modes="public" walkFactor="0.75"/>
    </person>
    <person id="per173" type="per_pedestrian" depart="1038.00">
        <personTrip from="894189050" to="-87712914#1" modes="public" walkFactor="0.75"/>
    </person>
    <person id="per174" type="per_pedestrian" depart="1044.00">
        <personTrip from="269001617" to="162513809" modes="public" walkFactor="0.75"/>
    </person>
    <person id="per175" type="per_pedestrian" depart="1050.00">
        <personTrip from="93785463#1" to="227062816" modes="public" walkFactor="0.75"/>
    </person>
    <person id="per176" type="per_pedestrian" depart="1056.00">
        <personTrip from="749504931#3" to="-245939113#1" modes="public" walkFactor="0.75"/>
    </person>
    <person id="per178" type="per_pedestrian" depart="1068.00">
        <personTrip from="87712914#1" to="-69851762#0" modes="public" walkFactor="0.75"/>
    </person>
    <person id="per179" type="per_pedestrian" depart="1074.00">
        <personTrip from="-240679928#0" to="172808747" modes="public" walkFactor="0.75"/>
    </person>
    <person id="per180" type="per_pedestrian" depart="1080.00">
        <personTrip from="335090750" to="1063016024" modes="public" walkFactor="0.75"/>
    </person>
    <person id="per181" type="per_pedestrian" depart="1086.00">
        <personTrip from="253488996" to="214788224#0" modes="public" walkFactor="0.75"/>
    </person>
    <person id="per182" type="per_pedestrian" depart="1092.00">
        <personTrip from="150837582#3" to="240679876" modes="public" walkFactor="0.75"/>
    </person>
    <person id="per183" type="per_pedestrian" depart="1098.00">
        <personTrip from="-572455968#2" to="308378841" modes="public" walkFactor="0.75"/>
    </person>
    <person id="per184" type="per_pedestrian" depart="1104.00">
        <personTrip from="-102152771#0" to="69731561" modes="public" walkFactor="0.75"/>
    </person>
    <person id="per185" type="per_pedestrian" depart="1110.00">
        <personTrip from="227228184" to="320630988#2" modes="public" walkFactor="0.75"/>
    </person>
    <person id="per186" type="per_pedestrian" depart="1116.00">
        <personTrip from="35134167#2" to="27409014#3" modes="public" walkFactor="0.75"/>
    </person>
    <person id="per187" type="per_pedestrian" depart="1122.00">
        <personTrip from="142259811#1" to="-192399640#1" modes="public" walkFactor="0.75"/>
    </person>
    <person id="per188" type="per_pedestrian" depart="1128.00">
        <personTrip from="27246000#0" to="1101640525#0" modes="public" walkFactor="0.75"/>
    </person>
    <person id="per189" type="per_pedestrian" depart="1134.00">