<?xml version="1.0" encoding="UTF-8"?>

<!-- generated on 2023-03-06 16:04:21.781166 by randomTrips.py v1_14_1+0000-f654d7b963e
<configuration>
    <end value="3600"/>
    <fringe-factor value="5.0"/>
    <fringe-start-attributes value="departSpeed=&quot;max&quot;"/>
    <min-distance value="600.0"/>
    <net-file value="osm.net.xml"/>
    <period value="40.0"/>
    <route-file value="osm.bus.rou.xml"/>
    <trip-attributes value="departLane=&quot;best&quot;"/>
    <output-trip-file value="osm.bus.trips.xml"/>
    <prefix value="bus"/>
    <validate value="True"/>
    <vclass value="bus"/>
    <vehicle-class value="bus"/>
</configuration>
-->

<!-- generated on 2023-03-06 16:04:21 by Eclipse SUMO duarouter Version 1.14.1
<configuration xmlns:xsi="http://www.w3.org/2001/XMLSchema-instance" xsi:noNamespaceSchemaLocation="http://sumo.dlr.de/xsd/duarouterConfiguration.xsd">

    <input>
        <net-file value="osm.net.xml"/>
        <route-files value="osm.bus.trips.xml"/>
    </input>

    <output>
        <output-file value="osm.bus.trips.xml.tmp"/>
        <alternatives-output value="NUL"/>
        <write-trips value="true"/>
    </output>

    <time>
        <begin value="0"/>
        <end value="3600"/>
    </time>

    <report>
        <no-warnings value="true"/>
        <ignore-errors value="true"/>
        <no-step-log value="true"/>
    </report>

</configuration>
-->

<routes xmlns:xsi="http://www.w3.org/2001/XMLSchema-instance" xsi:noNamespaceSchemaLocation="http://sumo.dlr.de/xsd/routes_file.xsd">
    <vType id="bus_bus" vClass="bus"/>
    <trip id="bus0" type="bus_bus" depart="0.00" departLane="best" from="257676226#1" to="-150393270#1"/>
    <trip id="bus1" type="bus_bus" depart="40.00" departLane="best" from="108404027#4" to="-46963653#1"/>
    <trip id="bus2" type="bus_bus" depart="80.00" departLane="best" from="320254931" to="27245673#2"/>
    <trip id="bus3" type="bus_bus" depart="120.00" departLane="best" from="500261497" to="-216128742"/>
    <trip id="bus4" type="bus_bus" depart="160.00" departLane="best" from="17977155#0" to="-150546875"/>
    <trip id="bus5" type="bus_bus" depart="200.00" departLane="best" from="-410592139" to="217382713#3"/>
    <trip id="bus6" type="bus_bus" depart="240.00" departLane="best" from="-150393270#1" to="-371573875"/>
    <trip id="bus7" type="bus_bus" depart="280.00" departLane="best" from="268931655#0" to="23148902#6"/>
    <trip id="bus8" type="bus_bus" depart="320.00" departLane="best" from="-429104325#0" to="24608196#1"/>
    <trip id="bus9" type="bus_bus" depart="360.00" departLane="best" from="385966809#0" to="-112796201#1"/>
    <trip id="bus11" type="bus_bus" depart="440.00" departLane="best" from="150554193#1" to="-28646387#1"/>
    <trip id="bus12" type="bus_bus" depart="480.00" departLane="best" from="867790499#0" to="150554193#0"/>
    <trip id="bus13" type="bus_bus" depart="520.00" departLane="best" from="415123460#4" to="251103977#0"/>
    <trip id="bus14" type="bus_bus" depart="560.00" departLane="best" from="380637205#0" to="320185351"/>
    <trip id="bus15" type="bus_bus" depart="600.00" departLane="best" from="229621539#0" to="95170291#1"/>
    <trip id="bus16" type="bus_bus" depart="640.00" departLane="best" from="160173625" to="23567306#1"/>
    <trip id="bus17" type="bus_bus" depart="680.00" departLane="best" from="40104609#6" to="25209837"/>
    <trip id="bus18" type="bus_bus" depart="720.00" departLane="best" from="4400845#7" to="24534083#2"/>
    <trip id="bus19" type="bus_bus" depart="760.00" departLane="best" from="292947985" to="-150857994#1"/>
    <trip id="bus20" type="bus_bus" depart="800.00" departLane="best" from="-210441945#1" to="-53573984#2"/>
    <trip id="bus21" type="bus_bus" depart="840.00" departLane="best" from="-226872065#0" to="114198527"/>
    <trip id="bus22" type="bus_bus" depart="880.00" departLane="best" departSpeed="max" from="255823912.246" to="150896688#3"/>
    <trip id="bus23" type="bus_bus" depart="920.00" departLane="best" from="151785743#1" to="-40103023#1"/>
    <trip id="bus24" type="bus_bus" depart="960.00" departLane="best" from="107085654#2" to="739924925"/>
    <trip id="bus25" type="bus_bus" depart="1000.00" departLane="best" from="26602743#1" to="251816548"/>
    <trip id="bus26" type="bus_bus" depart="1040.00" departLane="best" from="-317890187" to="319999605#7"/>
    <trip id="bus27" type="bus_bus" depart="1080.00" departLane="best" from="-305829909#2" to="163419466#3"/>
    <trip id="bus29" type="bus_bus" depart="1160.00" departLane="best" from="238871711#0" to="27283179#1"/>
    <trip id="bus30" type="bus_bus" depart="1200.00" departLane="best" from="409287503" to="360785920#0"/>
    <trip id="bus31" type="bus_bus" depart="1240.00" departLane="best" from="149956819#0" to="108404027#0"/>
    <trip id="bus32" type="bus_bus" depart="1280.00" departLane="best" departSpeed="max" from="-388697805#0" to="778989042#1"/>
    <trip id="bus33" type="bus_bus" depart="1320.00" departLane="best" from="4432610#3" to="150393267#10"/>
    <trip id="bus34" type="bus_bus" depart="1360.00" departLane="best" from="269001612#2" to="165720108#6"/>
    <trip id="bus35" type="bus_bus" depart="1400.00" departLane="best" from="532149775#1" to="190451914#1"/>
    <trip id="bus36" type="bus_bus" depart="1440.00" departLane="best" from="240321445#4" to="107085655"/>
    <trip id="bus37" type="bus_bus" depart="1480.00" departLane="best" from="24554287" to="5073616#2"/>
    <trip id="bus38" type="bus_bus" depart="1520.00" departLane="best" from="165823635" to="-442545005"/>
    <trip id="bus39" type="bus_bus" depart="1560.00" departLane="best" departSpeed="max" from="E8_y9" to="218271806#1"/>
    <trip id="bus40" type="bus_bus" depart="1600.00" departLane="best" from="-216879574#5" to="-150893550#1"/>
    <trip id="bus41" type="bus_bus" depart="1640.00" departLane="best" from="-240321445#5" to="253489009#2"/>
    <trip id="bus42" type="bus_bus" depart="1680.00" departLane="best" from="366073485#1" to="181844308"/>
    <trip id="bus43" type="bus_bus" depart="1720.00" departLane="best" from="-185580084#0" to="164085721#0"/>
    <trip id="bus44" type="bus_bus" depart="1760.00" departLane="best" from="E6_vu3" to="227205268#1"/>
    <trip id="bus45" type="bus_bus" depart="1800.00" departLane="best" from="94586280#2" to="4400845#4"/>
    <trip id="bus46" type="bus_bus" depart="1840.00" departLane="best" departSpeed="max" from="-131229614#3" to="306032646"/>
    <trip id="bus47" type="bus_bus" depart="1880.00" departLane="best" from="27247877" to="23055403#2"/>
    <trip id="bus48" type="bus_bus" depart="1920.00" departLane="best" from="-240321454#0" to="185580084#0"/>
    <trip id="bus49" type="bus_bus" depart="1960.00" departLane="best" from="190340308" to="85287424"/>
    <trip id="bus50" type="bus_bus" depart="2000.00" departLane="best" from="215971175#1" to="-334457596"/>
    <trip id="bus51" type="bus_bus" depart="2040.00" departLane="best" from="53175161" to="442749531"/>
    <trip id="bus52" type="bus_bus" depart="2080.00" departLane="best" from="130540643" to="257675381"/>
    <trip id="bus53" type="bus_bus" depart="2120.00" departLane="best" from="251816547" to="-280873263#1"/>
    <trip id="bus54" type="bus_bus" depart="2160.00" departLane="best" from="35929662" to="230602993"/>
    <trip id="bus56" type="bus_bus" depart="2240.00" departLane="best" from="-149951202#3" to="628505597"/>
    <trip id="bus57" type="bus_bus" depart="2280.00" departLane="best" from="4432614#3" to="402016764"/>
    <trip id="bus58" type="bus_bus" depart="2320.00" departLane="best" from="148357184#0" to="-175558914#4"/>
    <trip id="bus59" type="bus_bus" depart="2360.00" departLane="best" from="4432614#1" to="7980431#1"/>
    <trip id="bus60" type="bus_bus" depart="2400.00" departLane="best" from="-215971171#0" to="208424711#1"/>
    <trip id="bus61" type="bus_bus" depart="2440.00" departLane="best" from="-205422863#0" to="358953086"/>
    <trip id="bus62" type="bus_bus" depart="2480.00" departLane="best" from="359726683#0" to="-24819999#0"/>
    <trip id="bus63" type="bus_bus" depart="2520.00" departLane="best" from="204976967" to="235391020#0"/>
    <trip id="bus64" type="bus_bus" depart="2560.00" departLane="best" from="181503326#0" to="-40586130#2"/>
    <trip id="bus66" type="bus_bus" depart="2640.00" departLane="best" from="-371573876#2" to="149951202#7"/>
    <trip id="bus67" type="bus_bus" depart="2680.00" departLane="best" from="187060049#0" to="226872065#0"/>
    <trip id="bus68" type="bus_bus" depart="2720.00" departLane="best" from="-24534243#0" to="-520824524#2"/>
    <trip id="bus70" type="bus_bus" depart="2800.00" departLane="best" from="-502060955#1" to="-442749533"/>
    <trip id="bus71" type="bus_bus" depart="2840.00" departLane="best" departSpeed="max" from="-46963653#2" to="53175060#1"/>
    <trip id="bus72" type="bus_bus" depart="2880.00" departLane="best" from="4400844#0" to="-206576555#1"/>
    <trip id="bus73" type="bus_bus" depart="2920.00" departLane="best" from="-532149775#2" to="270655649#0"/>
    <trip id="bus74" type="bus_bus" depart="2960.00" departLane="best" from="-39649665" to="-253488999#1"/>
    <trip id="bus75" type="bus_bus" depart="3000.00" departLane="best" from="739924926" to="24470195#0"/>
    <trip id="bus76" type="bus_bus" depart="3040.00" departLane="best" from="38139888#0" to="-360248206#2"/>
    <trip id="bus77" type="bus_bus" depart="3080.00" departLane="best" from="-218303447" to="184156823"/>
    <trip id="bus78" type="bus_bus" depart="3120.00" departLane="best" from="181503326#1" to="192428990"/>
    <trip id="bus79" type="bus_bus" depart="3160.00" departLane="best" from="320185500#1" to="270684568#6"/>
    <trip id="bus80" type="bus_bus" depart="3200.00" departLane="best" from="999857917#0" to="-220677168#1"/>
    <trip id="bus82" type="bus_bus" depart="3280.00" departLane="best" from="4400845#7" to="-999862407"/>
    <trip id="bus83" type="bus_bus" depart="3320.00" departLane="best" from="-360037729#1" to="189773010#0"/>
    <trip id="bus85" type="bus_bus" depart="3400.00" departLane="best" from="-94586280#1" to="57381284"/>
    <trip id="bus86" type="bus_bus" depart="3440.00" departLane="best" from="188466506" to="4400845#6"/>
    <trip id="bus87" type="bus_bus" depart="3480.00" departLane="best" from="235389908#0" to="-155860744"/>
    <trip id="bus88" type="bus_bus" depart="3520.00" departLane="best" from="EMk2" to="402016814"/>
    <trip id="bus89" type="bus_bus" depart="3560.00" departLane="best" from="93785463#0.22" to="597172848"/>
</routes>
