<?xml version="1.0" encoding="UTF-8"?>

<!-- generated on 2022-11-17 10:08:06 by Eclipse SUMO netedit Version 1.14.1
-->

<additional xmlns:xsi="http://www.w3.org/2001/XMLSchema-instance" xsi:noNamespaceSchemaLocation="http://sumo.dlr.de/xsd/additional_file.xsd">
    <!-- Shapes -->
    <poly id="1008923721" type="man_made.pipeline" color="255,230,230" fill="0" layer="-1.00" shape="16170.220000,55382.160000 16170.740000,55383.380000 16171.260000,55384.630000 16216.660000,55484.130000 16225.210000,55491.430000 16235.900000,55492.770000 16507.570000,55367.920000 16517.580000,55353.470000 16703.140000,55270.960000 16939.050000,55165.900000 16940.350000,55165.290000 17019.650000,55129.290000 17287.300000,54999.980000 17292.480000,54997.790000 17295.080000,54997.810000 17333.660000,55022.860000 17337.110000,55022.860000 17373.120000,55006.780000 17641.740000,54883.320000 17646.530000,54881.150000 17735.820000,54838.330000 17864.860000,54782.860000"/>
    <poly id="1013180530" type="landuse.construction" color="194,194,130" fill="1" layer="-3.00" shape="14821.218252,53543.746251 14818.715159,53542.229556 14808.956432,53536.172124 14828.979894,53508.903818 14836.653292,53515.153809 14841.069757,53518.813958 14821.218252,53543.746251"/>
    <poly id="1017955565" type="building.apartments" color="255,230,230" fill="1" layer="-1.00" shape="15013.932718,55670.611669 15024.278417,55687.649863 15009.515059,55696.558480 15001.667792,55683.627597 15003.009257,55682.817724 15000.518038,55678.710389 15002.638405,55677.428115 15013.932718,55670.611669"/>
    <poly id="1017955566" type="building.apartments" color="255,230,230" fill="1" layer="-1.00" shape="14985.795658,55659.312500 15001.366798,55649.908981 15013.932718,55670.611669 15002.638405,55677.428115 14997.919713,55669.645202 14993.635677,55672.232293 14985.795658,55659.312500"/>
    <poly id="1017955567" type="building.apartments" color="255,230,230" fill="1" layer="-1.00" shape="14968.753212,55669.593561 14985.795658,55659.312500 14993.635677,55672.232293 14991.847055,55673.312128 14992.755598,55674.806694 14981.093441,55681.836999 14979.430230,55679.102505 14975.838512,55681.262285 14968.753212,55669.593561"/>
    <poly id="1017955568" type="building.apartments" color="255,230,230" fill="1" layer="-1.00" shape="14974.869143,55717.646981 14963.951755,55699.656737 14976.320558,55692.187850 14977.903247,55694.800609 14982.720929,55691.887350 14992.055671,55707.275985 14989.819908,55708.625779 14974.869143,55717.646981"/>
    <poly id="1017955569" type="building.apartments" color="255,230,230" fill="1" layer="-1.00" shape="14985.148999,55734.585503 14974.869143,55717.646981 14989.819908,55708.625779 14991.856816,55711.980266 14993.443497,55711.024142 14999.078092,55720.323804 14997.188483,55721.459932 14999.782321,55725.744435 14997.250878,55727.274180 14985.148999,55734.585503"/>
    <poly id="1017955570" type="building.apartments" color="255,230,230" fill="1" layer="-1.00" shape="15011.542524,55743.106251 14996.014855,55752.476087 14985.148999,55734.585503 14997.250878,55727.274180 15000.679966,55732.931466 15004.105710,55730.861807 15011.542524,55743.106251"/>
    <poly id="1017955571" type="building.apartments" color="255,230,230" fill="1" layer="-1.00" shape="15035.246868,55705.717694 15022.070228,55713.670166 15020.483542,55714.626282 15009.515059,55696.558480 15024.278417,55687.649863 15035.246868,55705.717694"/>
    <poly id="1017955572" type="building.apartments" color="255,230,230" fill="1" layer="-1.00" shape="15035.246868,55705.717694 15045.497278,55722.612061 15026.118237,55734.310129 15018.556850,55721.855295 15024.766529,55718.109615 15022.070228,55713.670166 15035.246868,55705.717694"/>
    <poly id="1017955573" type="building.apartments" color="255,230,230" fill="1" layer="-1.00" shape="15026.118237,55734.310129 15011.542524,55743.106251 15004.105710,55730.861807 15006.521744,55729.399579 15005.246828,55727.296085 15012.495018,55722.920524 15013.645338,55724.813650 15018.556850,55721.855295 15026.118237,55734.310129"/>
    <poly id="1019171669" type="building.yes" color="255,230,230" fill="1" layer="-1.00" shape="14538.824437,55495.966614 14538.547490,55495.723979 14538.429170,55495.380160 14538.499077,55495.023891 14538.736114,55494.744264 14539.082968,55494.630630 14539.445645,55494.705889 14539.715271,55494.937457 14539.840833,55495.281225 14539.770926,55495.637494 14539.526647,55495.917172 14539.179872,55496.041924 14538.824437,55495.966614"/>
    <poly id="1020114745" type="waterway.river" color="181,209,209" fill="0" layer="-4.00" shape="13407.762289,51866.341226 13415.695032,51912.678572 13480.326238,52032.927072 13547.879006,52112.708154 13756.568741,52298.691289 13970.532806,52502.622090 14120.828052,52648.947023 14141.524901,52733.184073 14141.618514,52836.557763"/>
    <poly id="1020122443" type="building.service" color="255,230,230" fill="1" layer="-1.00" shape="14472.828306,53173.753509 14472.898087,53178.489246 14478.621875,53178.415344 14478.552099,53173.679607 14472.828306,53173.753509"/>
    <poly id="1020122444" type="building.office" color="255,230,230" fill="1" layer="-1.00" shape="15022.513635,54173.544763 15084.347688,54125.928695 15060.777217,54096.363845 15051.360501,54103.834104 15062.774013,54118.808096 15061.296913,54119.963549 15023.546949,54149.311606 15011.117409,54158.970979 15022.513635,54173.544763"/>
    <poly id="1020122445" type="building.apartments" color="255,230,230" fill="1" layer="-1.00" shape="15001.753891,54111.840870 15020.201492,54137.094153 15032.001207,54128.528757 15021.405134,54114.427433 15057.613693,54087.369297 15049.401250,54076.397653 15041.199347,54082.503063 15023.822495,54095.421147 15012.788138,54103.625438 15001.753891,54111.840870"/>
    <poly id="1020122446" type="landuse.grass" color="194,194,130" fill="1" layer="-3.00" shape="14988.317716,54127.777835 15002.212744,54146.392144 15014.681316,54137.132724 15000.786386,54118.529500 14988.317716,54127.777835"/>
    <poly id="1020122447" type="leisure.playground" color="207,245,201" fill="1" layer="-2.00" shape="15035.432613,54114.674105 15043.746837,54125.700608 15057.461660,54115.409737 15049.147449,54104.383214 15035.432613,54114.674105"/>
    <poly id="1020928339" type="building.service" color="255,230,230" fill="1" layer="-1.00" shape="14439.170383,54265.783172 14442.200865,54264.060633 14440.249709,54260.661267 14437.219305,54262.394925 14439.170383,54265.783172"/>
    <poly id="1020975666" type="building.service" color="255,230,230" fill="1" layer="-1.00" shape="15857.442405,53610.624686 15856.195636,53608.420745 15858.837288,53606.935136 15860.084056,53609.139078 15857.442405,53610.624686"/>
    <poly id="102152762" type="building.yes" color="255,230,230" fill="1" layer="-1.00" shape="16098.054479,53946.980848 16089.330775,53932.987071 16108.196904,53921.296394 16116.920654,53935.301318 16098.054479,53946.980848"/>
    <poly id="102152763" type="building.yes" color="255,230,230" fill="1" layer="-1.00" shape="16077.208160,53964.710907 16069.755860,53952.309500 16089.252461,53940.658944 16096.697488,53953.060426 16077.208160,53964.710907"/>
    <poly id="102152764" type="building.office" color="255,230,230" fill="1" layer="-1.00" shape="16035.055601,53994.270798 16056.453274,53980.950629 16067.866375,53973.846566 16057.751436,53957.694303 16046.403288,53964.764591 16047.655709,53966.757297 16045.072970,53968.364713 16026.193027,53980.111296 16035.055601,53994.270798"/>
    <poly id="102152765" type="building.yes" color="255,230,230" fill="1" layer="-1.00" shape="16186.979923,53811.340069 16196.383250,53801.592721 16203.362018,53808.271793 16198.448173,53813.374812 16200.832709,53815.648953 16196.479973,53820.158928 16193.285926,53817.100901 16191.307398,53819.148870 16190.096982,53820.146558 16188.737908,53820.589359 16187.491587,53820.564445 16186.048470,53819.295662 16185.966762,53817.928716 16186.211820,53816.670736 16187.219233,53815.652186 16188.830762,53813.973591 16189.262436,53813.525952 16186.979923,53811.340069"/>
    <poly id="102152766" type="building.industrial" color="255,230,230" fill="1" layer="-1.00" shape="16068.473994,53823.350735 16072.600688,53820.776704 16081.178817,53815.437443 16086.055881,53812.402493 16118.796088,53864.678907 16113.782008,53867.803701 16105.615217,53872.895527 16101.214307,53875.627045 16088.682273,53855.622111 16084.375433,53848.736033 16068.473994,53823.350735"/>
    <poly id="102152767" type="building.yes" color="255,230,230" fill="1" layer="-1.00" shape="16028.060302,53755.072576 16041.181590,53776.429749 16042.869919,53775.395426 16046.426943,53773.214375 16064.488027,53787.989591 16069.821116,53792.356039 16083.681907,53775.418298 16040.397702,53739.990655 16028.060302,53755.072576"/>
    <poly id="102152768" type="amenity.parking" color="184,184,179" fill="1" layer="-1.00" shape="16125.265360,53765.274497 16130.343270,53769.409260 16145.939637,53782.945140 16167.892261,53800.040186 16170.292128,53797.088805 16172.699241,53794.137376 16175.106433,53791.197065 16177.506307,53788.245688 16179.913428,53785.294262 16182.320552,53782.342837 16184.727754,53779.402531 16187.127638,53776.451157 16189.534770,53773.499736 16191.941905,53770.548315 16194.341872,53767.608063 16196.749012,53764.656644 16199.156154,53761.705227 16177.780805,53744.272609 16156.529160,53726.939296 16154.122025,53729.890732 16151.722062,53732.831002 16149.314932,53735.782440 16146.907805,53738.733879 16144.507925,53741.685270 16142.100727,53744.625594 16139.693608,53747.577036 16137.286491,53750.528480 16134.886621,53753.479875 16132.479510,53756.431321 16130.072325,53759.371650 16127.672464,53762.323049 16125.265360,53765.274497"/>
    <poly id="102152768#1" type="building.yes" color="255,230,230" fill="1" layer="-1.00" shape="16125.265360,53765.274497 16130.343270,53769.409260 16145.939637,53782.945140 16167.892261,53800.040186 16170.292128,53797.088805 16172.699241,53794.137376 16175.106433,53791.197065 16177.506307,53788.245688 16179.913428,53785.294262 16182.320552,53782.342837 16184.727754,53779.402531 16187.127638,53776.451157 16189.534770,53773.499736 16191.941905,53770.548315 16194.341872,53767.608063 16196.749012,53764.656644 16199.156154,53761.705227 16177.780805,53744.272609 16156.529160,53726.939296 16154.122025,53729.890732 16151.722062,53732.831002 16149.314932,53735.782440 16146.907805,53738.733879 16144.507925,53741.685270 16142.100727,53744.625594 16139.693608,53747.577036 16137.286491,53750.528480 16134.886621,53753.479875 16132.479510,53756.431321 16130.072325,53759.371650 16127.672464,53762.323049 16125.265360,53765.274497"/>
    <poly id="102152769" type="building.yes" color="255,230,230" fill="1" layer="-1.00" shape="16109.612377,53787.182869 16155.749743,53828.940025 16152.427247,53832.586976 16147.019238,53838.527233 16134.240238,53826.962344 16123.465857,53817.207217 16125.673704,53814.790777 16103.082485,53794.353751 16106.871431,53790.047649 16109.612377,53787.182869"/>
    <poly id="102152770" type="building.yes" color="255,230,230" fill="1" layer="-1.00" shape="16091.135422,53759.157812 16121.859199,53721.348617 16102.552916,53705.658879 16099.024956,53709.996564 16089.517466,53702.267475 16077.360136,53717.225762 16068.828880,53710.290566 16069.568910,53709.373872 16062.152295,53703.342780 16055.852940,53703.930364 16046.655956,53715.244172 16057.875549,53724.362405 16058.378459,53723.736386 16068.228353,53731.741042 16063.924490,53737.040160 16091.135422,53759.157812"/>
    <poly id="102152770#1" type="shop.car_repair" color="237,199,255" fill="1" layer="-1.00" shape="16091.135422,53759.157812 16121.859199,53721.348617 16102.552916,53705.658879 16099.024956,53709.996564 16089.517466,53702.267475 16077.360136,53717.225762 16068.828880,53710.290566 16069.568910,53709.373872 16062.152295,53703.342780 16055.852940,53703.930364 16046.655956,53715.244172 16057.875549,53724.362405 16058.378459,53723.736386 16068.228353,53731.741042 16063.924490,53737.040160 16091.135422,53759.157812"/>
    <poly id="102152772" type="building.industrial" color="255,230,230" fill="1" layer="-1.00" shape="16044.056687,53904.132471 16054.069735,53920.196458 16060.068797,53929.828248 16094.424516,53908.526490 16092.205089,53904.961600 16090.359212,53901.994540 16070.516441,53870.176508 16069.066134,53867.851605 16067.029831,53864.585664 16064.773768,53860.965445 16061.748624,53856.116367 16020.509057,53789.956272 16007.382518,53768.899366 16000.694687,53758.171651 15985.077420,53733.118194 15978.872964,53723.165465 15944.545335,53744.445508 16044.056687,53904.132471"/>
    <poly id="102152773" type="building.yes" color="255,230,230" fill="1" layer="-1.00" shape="16011.965647,53960.106947 16015.493105,53957.859368 16023.334285,53952.858562 16009.860699,53931.848482 16004.998727,53934.950106 15998.492034,53939.096895 16009.439419,53956.177288 16011.965647,53960.106947"/>
    <poly id="102152789" type="building.yes" color="255,230,230" fill="1" layer="-1.00" shape="16872.234566,53921.589903 16891.198259,53910.157014 16933.236999,53979.486851 16914.280709,53990.919549 16872.234566,53921.589903"/>
    <poly id="102345554" type="leisure.park" color="207,245,201" fill="1" layer="-2.00" shape="14364.943645,54687.846795 14381.410456,54687.007110 14395.347060,54682.816708 14409.128455,54676.148143 14418.073906,54669.903065 14413.780937,54649.876776 14410.428178,54637.804260 14404.472909,54627.506858 14396.162174,54618.071155 14384.918962,54611.891616 14376.575017,54609.004644 14365.457907,54609.361597 14356.261146,54611.850683 14348.016302,54616.790080 14340.697667,54622.601219 14334.154216,54631.475407 14331.743583,54641.887830 14331.727949,54652.928057 14333.837483,54662.307711 14340.914425,54672.430290 14347.124391,54679.824030 14353.789286,54684.979836 14364.943645,54687.846795"/>
    <poly id="102360497" type="amenity.parking" color="184,184,179" fill="1" layer="-1.00" shape="14305.139445,54333.976819 14300.866196,54350.395077 14294.552686,54371.252804 14287.086165,54393.975447 14281.539425,54408.557214 14287.442549,54410.449693 14294.102743,54391.490655 14300.822562,54371.741827 14307.723698,54349.979372 14311.889722,54335.796588 14305.139445,54333.976819"/>
    <poly id="1025002572" type="building.yes" color="255,230,230" fill="1" layer="-1.00" shape="14810.345536,53904.120825 14811.260734,53897.232406 14809.846622,53897.042217 14809.099643,53896.936285 14808.896227,53895.825922 14807.857275,53895.410740 14806.691746,53895.541225 14806.126448,53896.545809 14803.929133,53896.249944 14803.006778,53903.149533 14804.138035,53903.297236 14810.345536,53904.120825"/>
    <poly id="1025002572#1" type="man_made.tower" color="255,230,230" fill="1" layer="-1.00" shape="14810.345536,53904.120825 14811.260734,53897.232406 14809.846622,53897.042217 14809.099643,53896.936285 14808.896227,53895.825922 14807.857275,53895.410740 14806.691746,53895.541225 14806.126448,53896.545809 14803.929133,53896.249944 14803.006778,53903.149533 14804.138035,53903.297236 14810.345536,53904.120825"/>
    <poly id="1028620178" type="man_made.pipeline" color="255,230,230" fill="0" layer="-1.00" shape="15188.046743,55085.772405 15202.581045,55108.218452 15205.161754,55112.681028 15206.547232,55115.050629 15238.573050,55170.706699 15320.791011,55302.216969 15322.051184,55304.287283 15425.186533,55474.044307 15428.222189,55477.314222 15484.827962,55501.816136 15491.509036,55512.765641 15570.293262,55655.254472 15575.113718,55656.900072 15648.069448,55623.266595 15669.707243,55613.289634 15703.044701,55616.351583 15713.159352,55611.634865 15715.151912,55610.698403 15716.769167,55609.953522 16014.353524,55473.203741 16031.548109,55445.525408 16126.301355,55401.977487 16127.796054,55401.300268 16170.218755,55382.156556 16168.387295,55378.033109 16151.373362,55339.569327 16133.543220,55331.362967 16111.862638,55285.181791 16063.068750,55181.216171 16037.202040,55134.218785 16002.304003,55073.630214 15919.349125,54938.334822 15787.353724,54718.980221 15785.958951,54716.288121"/>
    <poly id="1028664649" type="building.yes" color="255,230,230" fill="1" layer="-1.00" shape="15534.291998,54157.252199 15544.525543,54165.208799 15551.038894,54156.858848 15540.812665,54148.913303 15534.291998,54157.252199"/>
    <poly id="1028667939" type="building.yes" color="255,230,230" fill="1" layer="-1.00" shape="15284.210760,53889.439082 15268.170431,53901.980207 15249.377566,53878.073763 15265.417923,53865.532583 15284.210760,53889.439082"/>
    <poly id="103150760" type="building.retail" color="255,230,230" fill="1" layer="-1.00" shape="14559.184709,55559.517287 14557.674991,55557.015311 14529.254442,55509.987386 14572.744211,55483.863788 14574.979965,55482.513824 14604.902795,55532.055141 14598.144957,55536.116475 14559.184709,55559.517287"/>
    <poly id="103150760#1" type="shop.department_store" color="237,199,255" fill="1" layer="-1.00" shape="14559.184709,55559.517287 14557.674991,55557.015311 14529.254442,55509.987386 14572.744211,55483.863788 14574.979965,55482.513824 14604.902795,55532.055141 14598.144957,55536.116475 14559.184709,55559.517287"/>
    <poly id="103182120" type="building.apartments" color="255,230,230" fill="1" layer="-1.00" shape="14161.375798,55972.254251 14156.804385,55975.077540 14151.432624,55978.395746 14155.704081,55985.280584 14165.647248,55979.139097 14161.375798,55972.254251"/>
    <poly id="103187766" type="building.roof" color="255,230,230" fill="1" layer="-1.00" shape="13845.636421,56195.623560 13822.601125,56198.835938 13825.074614,56219.475313 13848.243697,56216.751171 13845.636421,56195.623560"/>
    <poly id="103187767" type="building.commercial" color="255,230,230" fill="1" layer="-1.00" shape="13825.074614,56219.475313 13814.814405,56220.705571 13811.718421,56200.115162 13822.601125,56198.835938 13825.074614,56219.475313"/>
    <poly id="103189796" type="building.apartments" color="255,230,230" fill="1" layer="-1.00" shape="14098.459351,56178.197828 14101.217157,56191.152758 14083.181765,56196.818665 14081.673968,56190.547810 14088.456324,56189.065012 14086.693075,56180.494565 14088.103519,56180.250985 14098.459351,56178.197828"/>
    <poly id="103270398" type="building.apartments" color="255,230,230" fill="1" layer="-1.00" shape="13842.525397,56055.359313 13840.745838,56042.575345 13854.007733,56040.767614 13854.109179,56043.790973 13858.459580,56043.492801 13862.045462,56048.659066 13858.859003,56050.683255 13859.249637,56053.637823 13842.525397,56055.359313"/>
    <poly id="103270400" type="building.apartments" color="255,230,230" fill="1" layer="-1.00" shape="13844.508936,56070.320935 13842.525397,56055.359313 13859.249637,56053.637823 13859.562305,56058.838784 13854.582681,56059.252669 13855.032947,56064.452639 13859.251138,56063.899706 13869.101851,56058.058523 13871.768444,56062.286387 13861.400252,56068.676074 13856.158973,56068.958426 13844.508936,56070.320935"/>
    <poly id="103270401" type="building.apartments" color="255,230,230" fill="1" layer="-1.00" shape="13846.515249,56087.439283 13848.658790,56105.512789 13851.659714,56106.892031 13860.233280,56101.715994 13866.709046,56097.878118 13861.572932,56089.632219 13856.640884,56092.625130 13855.835249,56086.349276 13846.515249,56087.439283"/>
    <poly id="103270403" type="building.apartments" color="255,230,230" fill="1" layer="-1.00" shape="13846.515249,56087.439283 13855.835249,56086.349276 13858.165249,56086.076777 13856.158973,56068.958426 13844.508936,56070.320935 13846.515249,56087.439283"/>
    <poly id="1034103142" type="amenity.parking" color="184,184,179" fill="1" layer="-1.00" shape="14097.603014,55273.535048 14087.622726,55279.721375 14093.773306,55289.994806 14090.115931,55292.077813 14095.187319,55300.335503 14105.352892,55317.006386 14113.269891,55311.980004 14116.515506,55317.137750 14121.728643,55313.831773 14097.603014,55273.535048"/>
    <poly id="1034103586" type="landuse.grass" color="194,194,130" fill="1" layer="-3.00" shape="14064.584370,55357.878868 14070.736841,55354.265927 14065.384505,55345.209778 14059.232028,55348.822725 14064.584370,55357.878868"/>
    <poly id="1034103587" type="landuse.grass" color="194,194,130" fill="1" layer="-3.00" shape="14058.387484,55347.205554 14064.308036,55343.572032 14054.407585,55327.521930 14048.494265,55331.155410 14058.387484,55347.205554"/>
    <poly id="1034115249" type="natural.grassland" color="140,196,107" fill="1" layer="-4.00" shape="13911.921215,55409.150120 13911.030542,55407.166411 13901.875498,55411.212499 13902.614959,55413.319593 13893.685135,55416.452402 13892.938509,55414.356479 13890.199470,55415.198919 13886.990777,55418.212744 13877.300614,55420.361553 13875.661580,55423.086137 13877.946810,55426.616317 13882.684327,55423.680425 13884.227485,55425.748378 13911.229200,55409.610934 13911.921215,55409.150120"/>
    <poly id="1034115250" type="amenity.bicycle_parking" color="237,199,199" fill="1" layer="-1.00" shape="13893.685135,55416.452402 13892.938509,55414.356479 13901.875498,55411.212499 13902.614959,55413.319593 13893.685135,55416.452402"/>
    <poly id="1034192205" type="building.yes" color="255,230,230" fill="1" layer="-1.00" shape="14708.412328,54245.124049 14728.590582,54247.494602 14731.617637,54221.601882 14726.266631,54220.961361 14726.404001,54219.893073 14712.499883,54218.612362 14711.438736,54223.267128 14710.206549,54230.380161 14708.412328,54245.124049"/>
    <poly id="1034192206" type="building.yes" color="255,230,230" fill="1" layer="-1.00" shape="14714.521606,54269.084619 14716.271437,54250.093997 14708.097499,54247.738979 14675.393974,54240.309191 14666.257074,54238.038850 14664.705076,54246.021347 14672.924885,54247.686666 14670.382618,54261.123927 14714.521606,54269.084619"/>
    <poly id="1034192207" type="building.yes" color="255,230,230" fill="1" layer="-1.00" shape="14710.206549,54230.380161 14708.412328,54245.124049 14708.097499,54247.738979 14675.393974,54240.309191 14677.748787,54229.052367 14669.765189,54226.985130 14670.887061,54220.673356 14679.448952,54222.558632 14679.168744,54223.916994 14692.785169,54226.522681 14690.429419,54236.623240 14703.457421,54237.976774 14703.884825,54229.746499 14710.206549,54230.380161"/>
    <poly id="1034701870" type="landuse.grass" color="194,194,130" fill="1" layer="-3.00" shape="14819.174100,53483.768366 14821.329686,53468.810761 14820.888886,53451.436565 14822.004184,53451.362026 14824.135446,53456.672540 14827.324103,53460.886077 14831.767882,53464.301433 14826.501146,53475.767616 14820.096972,53484.151012 14819.174100,53483.768366"/>
    <poly id="1034703963" type="landuse.grass" color="194,194,130" fill="1" layer="-3.00" shape="14832.700269,53458.813759 14831.666477,53460.177401 14828.906801,53458.240021 14826.379737,53455.378224 14824.752471,53451.676267 14825.964285,53450.900624 14827.514571,53453.958283 14829.962328,53456.876227 14832.700269,53458.813759"/>
    <poly id="1036116739" type="building.service" color="255,230,230" fill="1" layer="-1.00" shape="14922.869853,54173.385733 14924.858061,54171.770827 14928.555589,54176.303276 14926.567382,54177.918181 14922.869853,54173.385733"/>
    <poly id="1036535566" type="leisure.playground" color="207,245,201" fill="1" layer="-2.00" shape="16855.421284,54962.068129 16853.813807,54962.156648 16852.260800,54961.722264 16850.929226,54960.819456 16849.935346,54959.503040 16849.432303,54957.927648 16849.479228,54956.270770 16850.062965,54954.732618 16851.119362,54953.469269 16852.533414,54952.614902 16854.153679,54952.270586 16855.799371,54952.481996 16857.281945,54953.217032 16858.434288,54954.398981 16859.139621,54955.895204 16859.316790,54957.483883 16858.972299,54959.053797 16858.148498,54960.437894 16856.916711,54961.468933 16855.421284,54962.068129"/>
    <poly id="1036535567" type="leisure.playground" color="207,245,201" fill="1" layer="-2.00" shape="16900.804174,54983.101639 16899.196703,54983.190145 16897.643705,54982.755748 16896.312144,54981.852929 16895.318278,54980.536505 16894.815251,54978.961108 16894.862263,54977.315349 16895.445936,54975.766084 16896.502339,54974.502743 16897.923636,54973.648340 16899.536728,54973.315203 16901.182339,54973.515510 16902.664901,54974.250558 16903.817230,54975.432516 16904.522547,54976.928745 16904.699776,54978.528543 16904.355200,54980.087336 16903.531391,54981.471427 16902.299674,54982.513573 16900.804174,54983.101639"/>
    <poly id="1036535568" type="leisure.playground" color="207,245,201" fill="1" layer="-2.00" shape="16952.186962,54920.466992 16950.579472,54920.555482 16949.026461,54920.121071 16947.694893,54919.218239 16946.708199,54917.890641 16946.205254,54916.326356 16946.244965,54914.669528 16946.828734,54913.131387 16947.885088,54911.856939 16949.306482,54911.013667 16950.926766,54910.669380 16952.565223,54910.880867 16954.047795,54911.615929 16955.207369,54912.797850 16955.912607,54914.282968 16956.089822,54915.882768 16955.745300,54917.452675 16954.914152,54918.825688 16953.682411,54919.867823 16952.186962,54920.466992"/>
    <poly id="1036535569" type="leisure.playground" color="207,245,201" fill="1" layer="-2.00" shape="16800.549054,54954.095015 16803.152084,54946.873283 16807.857107,54948.554095 16805.254072,54955.775825 16800.549054,54954.095015"/>
    <poly id="1036535570" type="leisure.playground" color="207,245,201" fill="1" layer="-2.00" shape="16921.989225,55004.585213 16920.381760,55004.673712 16918.828771,55004.239309 16917.497218,55003.336486 16916.503288,55002.008940 16916.000342,55000.444658 16916.040043,54998.787830 16916.623794,54997.249685 16917.687367,54995.975183 16919.101492,54995.131950 16920.721748,54994.787654 16922.367425,54994.999085 16923.842735,54995.734187 16925.002298,54996.916101 16925.707534,54998.401215 16925.884756,55000.001014 16925.540248,55001.570923 16924.709120,55002.943942 16923.484648,55003.986035 16921.989225,55004.585213"/>
    <poly id="1036535571" type="leisure.playground" color="207,245,201" fill="1" layer="-2.00" shape="16958.861332,55015.925335 16953.255240,55013.794538 16947.402374,55010.498007 16944.102304,55004.393951 16943.781739,54999.748803 16943.033925,54992.938502 16948.389345,54988.944998 16953.947020,54988.140990 16959.556267,54988.559612 16966.315361,54996.341772 16969.795440,55003.378549 16968.299814,55011.593466 16964.118325,55014.567438 16958.861332,55015.925335"/>
    <poly id="1036535572" type="leisure.playground" color="207,245,201" fill="1" layer="-2.00" shape="16827.748434,54963.864380 16841.479314,54935.133312 16845.083582,54936.854835 16831.345371,54965.574826 16827.748434,54963.864380"/>
    <poly id="1036535573" type="leisure.playground" color="207,245,201" fill="1" layer="-2.00" shape="16869.188333,54949.646829 16869.705256,54944.595872 16879.621180,54945.608378 16879.111491,54950.659286 16869.188333,54949.646829"/>
    <poly id="1038211260" type="building.garage" color="255,230,230" fill="1" layer="-1.00" shape="13714.186678,55446.220121 13711.082578,55446.653926 13708.144136,55441.950032 13707.890179,55439.883926 13710.560852,55439.608904 13713.224203,55439.322819 13714.186678,55446.220121"/>
    <poly id="103959429" type="building.yes" color="255,230,230" fill="1" layer="-1.00" shape="15418.513170,55405.592903 15417.467900,55395.838592 15391.597126,55398.107762 15389.474309,55401.157650 15397.270346,55414.089434 15403.877517,55410.130203 15401.942845,55406.874918 15418.513170,55405.592903"/>
    <poly id="103959436" type="building.yes" color="255,230,230" fill="1" layer="-1.00" shape="15436.267539,55394.329971 15438.797181,55418.694098 15444.305128,55418.122365 15443.048294,55406.045865 15446.544107,55405.677048 15446.947309,55409.521064 15453.056021,55408.889598 15452.660066,55405.045531 15451.380061,55392.757949 15436.267539,55394.329971"/>
    <poly id="103959437" type="building.apartments" color="255,230,230" fill="1" layer="-1.00" shape="15473.644654,55396.895657 15477.942870,55402.591705 15473.060466,55419.280078 15460.120220,55415.511544 15463.249911,55407.229303 15463.576337,55405.203585 15473.644654,55396.895657"/>
    <poly id="103959440" type="building.apartments" color="255,230,230" fill="1" layer="-1.00" shape="15461.852059,55457.558699 15451.430216,55454.517690 15450.290827,55454.192026 15451.557363,55449.858399 15444.452276,55447.795098 15447.395809,55437.735264 15453.346953,55439.461888 15454.655951,55434.983436 15467.378417,55438.686753 15461.852059,55457.558699"/>
    <poly id="103959445" type="building.apartments" color="255,230,230" fill="1" layer="-1.00" shape="15434.118039,55475.238876 15434.832130,55474.811457 15435.945987,55476.682687 15441.052980,55476.791915 15441.102525,55476.624804 15444.152138,55466.197343 15442.402992,55465.675773 15433.625176,55451.094142 15423.296090,55457.280426 15434.118039,55475.238876"/>
    <poly id="103959447" type="building.apartments" color="255,230,230" fill="1" layer="-1.00" shape="15403.432475,55424.319759 15413.372039,55418.358491 15414.324221,55417.796008 15422.208086,55430.871752 15425.345781,55428.993359 15424.547111,55427.664731 15433.361455,55422.378357 15439.611009,55425.359229 15424.838565,55434.200057 15413.492480,55441.004879 15403.432475,55424.319759"/>
    <poly id="103959452" type="building.apartments" color="255,230,230" fill="1" layer="-1.00" shape="15423.296090,55457.280426 15433.625176,55451.094142 15432.189105,55448.713717 15433.530768,55447.915068 15430.980985,55443.685648 15429.639321,55444.484298 15427.609139,55441.029542 15428.626117,55440.411024 15424.838565,55434.200057 15413.492480,55441.004879 15423.296090,55457.280426"/>
    <poly id="103959457" type="building.apartments" color="255,230,230" fill="1" layer="-1.00" shape="15397.270346,55414.089434 15403.877517,55410.130203 15407.209923,55408.128155 15413.372039,55418.358491 15403.432475,55424.319759 15397.270346,55414.089434"/>