<?xml version="1.0" encoding="UTF-8"?>

<!-- generated on 2023-03-06 16:03:54.155904 by randomTrips.py v1_14_1+0000-f654d7b963e
<configuration>
    <end value="3600"/>
    <fringe-factor value="2.0"/>
    <fringe-start-attributes value="departSpeed=&quot;max&quot;"/>
    <max-distance value="8000.0"/>
    <net-file value="osm.net.xml"/>
    <period value="5.0"/>
    <route-file value="osm.bicycle.rou.xml"/>
    <trip-attributes value="departLane=&quot;best&quot;"/>
    <output-trip-file value="osm.bicycle.trips.xml"/>
    <prefix value="bike"/>
    <validate value="True"/>
    <vclass value="bicycle"/>
    <vehicle-class value="bicycle"/>
</configuration>
-->

<!-- generated on 2023-03-06 16:03:52 by Eclipse SUMO duarouter Version 1.14.1
<configuration xmlns:xsi="http://www.w3.org/2001/XMLSchema-instance" xsi:noNamespaceSchemaLocation="http://sumo.dlr.de/xsd/duarouterConfiguration.xsd">

    <input>
        <net-file value="osm.net.xml"/>
        <route-files value="osm.bicycle.trips.xml"/>
    </input>

    <output>
        <output-file value="osm.bicycle.trips.xml.tmp"/>
        <alternatives-output value="NUL"/>
        <write-trips value="true"/>
    </output>

    <time>
        <begin value="0"/>
        <end value="3600"/>
    </time>

    <report>
        <no-warnings value="true"/>
        <ignore-errors value="true"/>
        <no-step-log value="true"/>
    </report>

</configuration>
-->

<routes xmlns:xsi="http://www.w3.org/2001/XMLSchema-instance" xsi:noNamespaceSchemaLocation="http://sumo.dlr.de/xsd/routes_file.xsd">
    <vType id="bike_bicycle" vClass="bicycle"/>
    <trip id="bike0" type="bike_bicycle" depart="0.00" departLane="best" from="240348395#3" to="-139692088#2"/>
    <trip id="bike1" type="bike_bicycle" depart="5.00" departLane="best" departSpeed="max" from="-377374718" to="-350679381"/>
    <trip id="bike2" type="bike_bicycle" depart="10.00" departLane="best" from="27247877" to="27244255"/>
    <trip id="bike3" type="bike_bicycle" depart="15.00" departLane="best" from="44828412#7" to="-204247179"/>
    <trip id="bike4" type="bike_bicycle" depart="20.00" departLane="best" from="107085661" to="-149951202#3"/>
    <trip id="bike5" type="bike_bicycle" depart="25.00" departLane="best" from="-29504040" to="191128490#0"/>
    <trip id="bike6" type="bike_bicycle" depart="30.00" departLane="best" from="-133302357" to="-299634627#0"/>
    <trip id="bike7" type="bike_bicycle" depart="35.00" departLane="best" from="24534182" to="218061156#1"/>
    <trip id="bike8" type="bike_bicycle" depart="40.00" departLane="best" departSpeed="max" from="-299637114" to="240321448#2"/>
    <trip id="bike9" type="bike_bicycle" depart="45.00" departLane="best" from="360248211#4" to="-10712593#1"/>
    <trip id="bike10" type="bike_bicycle" depart="50.00" departLane="best" from="360037734#0" to="27610888#1"/>
    <trip id="bike11" type="bike_bicycle" depart="55.00" departLane="best" from="-53573984#3" to="-255894049#0"/>
    <trip id="bike12" type="bike_bicycle" depart="60.00" departLane="best" from="79683431#1" to="-967938217"/>
    <trip id="bike13" type="bike_bicycle" depart="65.00" departLane="best" from="-193582128#0" to="-214586607#0"/>
    <trip id="bike14" type="bike_bicycle" depart="70.00" departLane="best" from="39649666" to="24549608#1"/>
    <trip id="bike15" type="bike_bicycle" depart="75.00" departLane="best" from="360248187#5" to="309740480#4"/>
    <trip id="bike16" type="bike_bicycle" depart="80.00" departLane="best" from="182489863" to="905263502#1"/>
    <trip id="bike17" type="bike_bicycle" depart="85.00" departLane="best" from="-851768157" to="224883546"/>
    <trip id="bike18" type="bike_bicycle" depart="90.00" departLane="best" from="376865360" to="251158323"/>
    <trip id="bike19" type="bike_bicycle" depart="95.00" departLane="best" from="415123460#1" to="235390974"/>
    <trip id="bike20" type="bike_bicycle" depart="100.00" departLane="best" from="269001621#3" to="-150892480"/>
    <trip id="bike21" type="bike_bicycle" depart="105.00" departLane="best" from="-306029065#3" to="-475170457#0"/>
    <trip id="bike22" type="bike_bicycle" depart="110.00" departLane="best" departSpeed="max" from="-183055815" to="-360248182#0"/>
    <trip id="bike23" type="bike_bicycle" depart="115.00" departLane="best" from="-208424711#1" to="-44828427#0"/>
    <trip id="bike24" type="bike_bicycle" depart="120.00" departLane="best" from="240321445#7" to="1085759981#0"/>
    <trip id="bike25" type="bike_bicycle" depart="125.00" departLane="best" from="-79058578#0" to="-31648190#0"/>
    <trip id="bike26" type="bike_bicycle" depart="130.00" departLane="best" from="-366073489#2" to="7656757"/>
    <trip id="bike27" type="bike_bicycle" depart="135.00" departLane="best" from="24532431#1" to="24608228"/>
    <trip id="bike28" type="bike_bicycle" depart="140.00" departLane="best" from="-254952128" to="309693140"/>
    <trip id="bike29" type="bike_bicycle" depart="145.00" departLane="best" departSpeed="max" from="-252932197#1" to="127606907#0"/>
    <trip id="bike30" type="bike_bicycle" depart="150.00" departLane="best" from="97301282#0" to="254957236#3"/>
    <trip id="bike31" type="bike_bicycle" depart="155.00" departLane="best" from="190443683#2" to="27245134#0"/>
    <trip id="bike32" type="bike_bicycle" depart="160.00" departLane="best" from="389119567#1" to="364071765#0"/>
    <trip id="bike33" type="bike_bicycle" depart="165.00" departLane="best" departSpeed="max" from="-306035262" to="-150393267#7"/>
    <trip id="bike34" type="bike_bicycle" depart="170.00" departLane="best" from="-4492379#1" to="-429065350#1"/>
    <trip id="bike35" type="bike_bicycle" depart="175.00" departLane="best" from="-27870084#0" to="7942136#0"/>
    <trip id="bike36" type="bike_bicycle" depart="180.00" departLane="best" from="43702375#3" to="-718155368#1"/>
    <trip id="bike37" type="bike_bicycle" depart="185.00" departLane="best" from="24608195#1" to="142259576#2"/>
    <trip id="bike38" type="bike_bicycle" depart="190.00" departLane="best" from="502060953#0" to="169690117"/>
    <trip id="bike39" type="bike_bicycle" depart="195.00" departLane="best" from="-36475788#0" to="-376865396#4"/>
    <trip id="bike40" type="bike_bicycle" depart="200.00" departLane="best" from="191003931#1" to="-420551633#0"/>
    <trip id="bike41" type="bike_bicycle" depart="205.00" departLane="best" from="213560194" to="53175067#4"/>
    <trip id="bike42" type="bike_bicycle" depart="210.00" departLane="best" from="-958718218" to="-339381133"/>
    <trip id="bike43" type="bike_bicycle" depart="215.00" departLane="best" from="E6_vu3" to="193326803#0"/>
    <trip id="bike44" type="bike_bicycle" depart="220.00" departLane="best" from="-192398367#0" to="-151785743#1"/>
    <trip id="bike45" type="bike_bicycle" depart="225.00" departLane="best" from="-215925952" to="253488999#2"/>
    <trip id="bike46" type="bike_bicycle" depart="230.00" departLane="best" from="350583203#0" to="150851814#1"/>
    <trip id="bike47" type="bike_bicycle" depart="235.00" departLane="best" from="-165069586#0" to="128081143"/>
    <trip id="bike48" type="bike_bicycle" depart="240.00" departLane="best" from="E22_y8" to="210582468#6"/>
    <trip id="bike49" type="bike_bicycle" depart="245.00" departLane="best" from="890797552#1" to="44828412#5"/>
    <trip id="bike50" type="bike_bicycle" depart="250.00" departLane="best" from="-1101640525#1" to="305824779#1"/>
    <trip id="bike51" type="bike_bicycle" depart="255.00" departLane="best" from="254952124#3" to="215971171#1"/>
    <trip id="bike52" type="bike_bicycle" depart="260.00" departLane="best" from="-366073489#1" to="255389622#0"/>
    <trip id="bike53" type="bike_bicycle" depart="265.00" departLane="best" from="-215925961#0" to="152929341#3"/>
    <trip id="bike54" type="bike_bicycle" depart="270.00" departLane="best" from="140313445#0" to="851760423"/>
    <trip id="bike55" type="bike_bicycle" depart="275.00" departLane="best" from="43702375#0" to="-420551633#13"/>
    <trip id="bike57" type="bike_bicycle" depart="285.00" departLane="best" from="499675996#3" to="459177084"/>
    <trip id="bike58" type="bike_bicycle" depart="290.00" departLane="best" from="-420551642#2" to="254957234#1"/>
    <trip id="bike59" type="bike_bicycle" depart="295.00" departLane="best" from="227062820#1" to="-254952134"/>
    <trip id="bike60" type="bike_bicycle" depart="300.00" departLane="best" from="305325049#1" to="216128747#0"/>
    <trip id="bike61" type="bike_bicycle" depart="305.00" departLane="best" from="320252634#10" to="210830493#2"/>
    <trip id="bike62" type="bike_bicycle" depart="310.00" departLane="best" from="-101123156" to="-856684277"/>
    <trip id="bike63" type="bike_bicycle" depart="315.00" departLane="best" from="-123699143" to="69851760#1"/>
    <trip id="bike64" type="bike_bicycle" depart="320.00" departLane="best" from="4400845#0" to="420551627"/>
    <trip id="bike65" type="bike_bicycle" depart="325.00" departLane="best" from="-442749531" to="-164506584#0"/>
    <trip id="bike66" type="bike_bicycle" depart="330.00" departLane="best" from="43866169#0" to="8067184#0"/>
    <trip id="bike67" type="bike_bicycle" depart="335.00" departLane="best" from="-188464156#0" to="18639552#3"/>
    <trip id="bike68" type="bike_bicycle" depart="340.00" departLane="best" from="-175347882" to="358953086"/>
    <trip id="bike69" type="bike_bicycle" depart="345.00" departLane="best" from="305829909#2" to="-240679897"/>
    <trip id="bike70" type="bike_bicycle" depart="350.00" departLane="best" from="150554195#2" to="221261311#0"/>
    <trip id="bike71" type="bike_bicycle" depart="355.00" departLane="best" from="-36475788#2" to="46022237#5"/>
    <trip id="bike72" type="bike_bicycle" depart="360.00" departLane="best" from="10712593#1" to="-319999605#5"/>
    <trip id="bike73" type="bike_bicycle" depart="365.00" departLane="best" from="184227241#2" to="310345921#1"/>
    <trip id="bike74" type="bike_bicycle" depart="370.00" departLane="best" from="-27245673#8" to="-69726932"/>
    <trip id="bike75" type="bike_bicycle" depart="375.00" departLane="best" from="E19_y" to="263933338#1"/>
    <trip id="bike76" type="bike_bicycle" depart="380.00" departLane="best" from="122000766#1" to="203502996"/>
    <trip id="bike77" type="bike_bicycle" depart="385.00" departLane="best" from="-219005862" to="-351669230#1"/>
    <trip id="bike78" type="bike_bicycle" depart="390.00" departLane="best" from="-53175159#3" to="240321445#8"/>
    <trip id="bike79" type="bike_bicycle" depart="395.00" departLane="best" departSpeed="max" from="-308382719" to="-35014372"/>
    <trip id="bike80" type="bike_bicycle" depart="400.00" departLane="best" from="-175558914#1" to="253537709#1"/>
    <trip id="bike81" type="bike_bicycle" depart="405.00" departLane="best" departSpeed="max" from="-306035262" to="556415252#1"/>
    <trip id="bike82" type="bike_bicycle" depart="410.00" departLane="best" from="408676775" to="-178935171#0"/>
    <trip id="bike83" type="bike_bicycle" depart="415.00" departLane="best" from="-320252634#3" to="270905181#4"/>
    <trip id="bike84" type="bike_bicycle" depart="420.00" departLane="best" departSpeed="max" from="-284814772#3" to="-244233176#2"/>
    <trip id="bike85" type="bike_bicycle" depart="425.00" departLane="best" from="61917693#0" to="23263249#0"/>
    <trip id="bike86" type="bike_bicycle" depart="430.00" departLane="best" from="150549253#0" to="369239271#2"/>
    <trip id="bike87" type="bike_bicycle" depart="435.00" departLane="best" from="360248191" to="-27610890"/>
    <trip id="bike88" type="bike_bicycle" depart="440.00" departLane="best" from="-205103380#0" to="151785781#0"/>
    <trip id="bike89" type="bike_bicycle" depart="445.00" departLane="best" from="1073646913#1" to="175558914#8"/>
    <trip id="bike90" type="bike_bicycle" depart="450.00" departLane="best" from="27245673#1" to="27244037"/>
    <trip id="bike91" type="bike_bicycle" depart="455.00" departLane="best" from="94586305" to="-215925951#0"/>
    <trip id="bike92" type="bike_bicycle" depart="460.00" departLane="best" from="-972789502#1" to="-999224253#0"/>
    <trip id="bike93" type="bike_bicycle" depart="465.00" departLane="best" from="415123460#1" to="-38139888#0"/>
    <trip id="bike94" type="bike_bicycle" depart="470.00" departLane="best" from="-27244248#3" to="164034965#10"/>
    <trip id="bike95" type="bike_bicycle" depart="475.00" departLane="best" from="107085661" to="-44828427#3"/>
    <trip id="bike96" type="bike_bicycle" depart="480.00" departLane="best" from="-35134173#2" to="662611046#1"/>
    <trip id="bike97" type="bike_bicycle" depart="485.00" departLane="best" from="127607225#2" to="44828412#9"/>
    <trip id="bike98" type="bike_bicycle" depart="490.00" departLane="best" from="189765125#1" to="-156279478#0"/>
    <trip id="bike99" type="bike_bicycle" depart="495.00" departLane="best" from="Emkbike16" to="420551659#0"/>
    <trip id="bike100" type="bike_bicycle" depart="500.00" departLane="best" from="87712907#0" to="694345941#2"/>
    <trip id="bike101" type="bike_bicycle" depart="505.00" departLane="best" departSpeed="max" from="39650823#0" to="-270905174#3"/>
    <trip id="bike102" type="bike_bicycle" depart="510.00" departLane="best" departSpeed="max" from="150857526#3" to="-323036954#0"/>
    <trip id="bike103" type="bike_bicycle" depart="515.00" departLane="best" departSpeed="max" from="-966447886" to="-165069584"/>
    <trip id="bike104" type="bike_bicycle" depart="520.00" departLane="best" departSpeed="max" from="-854910509" to="96105767"/>
    <trip id="bike105" type="bike_bicycle" depart="525.00" departLane="best" from="-36475788#2" to="366073490#2"/>
    <trip id="bike107" type="bike_bicycle" depart="535.00" departLane="best" departSpeed="max" from="79721476" to="E1_vu3"/>
    <trip id="bike108" type="bike_bicycle" depart="540.00" departLane="best" from="190348536#0" to="305325048#0"/>
    <trip id="bike109" type="bike_bicycle" depart="545.00" departLane="best" from="-245941530#3" to="-531113646"/>
    <trip id="bike110" type="bike_bicycle" depart="550.00" departLane="best" from="872973889" to="235391527#3"/>
    <trip id="bike111" type="bike_bicycle" depart="555.00" departLane="best" from="185581648#0" to="334457596"/>
    <trip id="bike112" type="bike_bicycle" depart="560.00" departLane="best" departSpeed="max" from="-163196517#1" to="237029732#1"/>
    <trip id="bike113" type="bike_bicycle" depart="565.00" departLane="best" from="163235103#3" to="4420855#1"/>
    <trip id="bike114" type="bike_bicycle" depart="570.00" departLane="best" from="-24685073" to="87712941#0"/>
    <trip id="bike115" type="bike_bicycle" depart="575.00" departLane="best" from="-185574410#0" to="-27246283#0"/>
    <trip id="bike116" type="bike_bicycle" depart="580.00" departLane="best" from="218025853#0" to="27244248#5"/>
    <trip id="bike117" type="bike_bicycle" depart="585.00" departLane="best" from="-319037853#0" to="-235388715#0"/>
    <trip id="bike118" type="bike_bicycle" depart="590.00" departLane="best" from="44827812#6" to="-376865396#1"/>
    <trip id="bike120" type="bike_bicycle" depart="600.00" departLane="best" from="107085647#0" to="237019108"/>
    <trip id="bike121" type="bike_bicycle" depart="605.00" departLane="best" from="175347881#2" to="744289340"/>
    <trip id="bike122" type="bike_bicycle" depart="610.00" departLane="best" from="-27245696" to="300068767#5"/>
    <trip id="bike123" type="bike_bicycle" depart="615.00" departLane="best" from="-323036954#0" to="142259576#3"/>
    <trip id="bike124" type="bike_bicycle" depart="620.00" departLane="best" from="253488947" to="-53573984#2"/>
    <trip id="bike125" type="bike_bicycle" depart="625.00" departLane="best" from="-45746496#0" to="35014373#1"/>
    <trip id="bike126" type="bike_bicycle" depart="630.00" departLane="best" departSpeed="max" from="-175559168" to="169689362#2"/>
    <trip id="bike127" type="bike_bicycle" depart="635.00" departLane="best" from="EMk1" to="E22_y8"/>
    <trip id="bike128" type="bike_bicycle" depart="640.00" departLane="best" from="-175563641#0" to="-320252634#5"/>
    <trip id="bike129" type="bike_bicycle" depart="645.00" departLane="best" from="-36475788#2" to="74314276#0"/>
    <trip id="bike130" type="bike_bicycle" depart="650.00" departLane="best" from="4404113#2" to="46963653#1"/>
    <trip id="bike131" type="bike_bicycle" depart="655.00" departLane="best" departSpeed="max" from="-787129297" to="-263933333"/>
    <trip id="bike132" type="bike_bicycle" depart="660.00" departLane="best" from="377905808#2" to="284813741#2"/>
    <trip id="bike133" type="bike_bicycle" depart="665.00" departLane="best" from="227441536#2" to="97142258"/>
    <trip id="bike134" type="bike_bicycle" depart="670.00" departLane="best" from="245939113#2" to="-1101405928#2"/>
    <trip id="bike135" type="bike_bicycle" depart="675.00" departLane="best" from="366073454#3" to="-532149775#2"/>
    <trip id="bike137" type="bike_bicycle" depart="685.00" departLane="best" from="-235388715#3" to="-229239405"/>
    <trip id="bike138" type="bike_bicycle" depart="690.00" departLane="best" from="-211994460#0" to="226872060#2"/>
    <trip id="bike139" type="bike_bicycle" depart="695.00" departLane="best" from="-376865306#12" to="24553737#0"/>
    <trip id="bike140" type="bike_bicycle" depart="700.00" departLane="best" from="27134353#2" to="-302130843#0"/>
    <trip id="bike141" type="bike_bicycle" depart="705.00" departLane="best" from="239844702#0" to="-420551633#5"/>
    <trip id="bike142" type="bike_bicycle" depart="710.00" departLane="best" from="150890236#6" to="556415252#0"/>
    <trip id="bike143" type="bike_bicycle" depart="715.00" departLane="best" from="39649661" to="-209308037#3"/>
    <trip id="bike144" type="bike_bicycle" depart="720.00" departLane="best" from="1073646913#1" to="-44828412#13"/>
    <trip id="bike145" type="bike_bicycle" depart="725.00" departLane="best" from="-102486913#3" to="360248211#1"/>
    <trip id="bike146" type="bike_bicycle" depart="730.00" departLane="best" from="240321448#3" to="-41990737#3"/>
    <trip id="bike148" type="bike_bicycle" depart="740.00" departLane="best" from="1085759981#0" to="-112796201#3"/>
    <trip id="bike149" type="bike_bicycle" depart="745.00" departLane="best" from="-178081901#4" to="48244127#1"/>
    <trip id="bike150" type="bike_bicycle" depart="750.00" departLane="best" from="462537200#1" to="218271808"/>
    <trip id="bike151" type="bike_bicycle" depart="755.00" departLane="best" from="377905809#4" to="23566451#0"/>
    <trip id="bike152" type="bike_bicycle" depart="760.00" departLane="best" from="-240679945#2" to="-240348395#4"/>
    <trip id="bike153" type="bike_bicycle" depart="765.00" departLane="best" from="-445304352#2" to="53175159#1"/>
    <trip id="bike154" type="bike_bicycle" depart="770.00" departLane="best" departSpeed="max" from="356166742" to="44828412#4"/>
    <trip id="bike155" type="bike_bicycle" depart="775.00" departLane="best" departSpeed="max" from="45746492" to="-317890187"/>
    <trip id="bike156" type="bike_bicycle" depart="780.00" departLane="best" from="-35134172#0" to="-216128744#1"/>
    <trip id="bike157" type="bike_bicycle" depart="785.00" departLane="best" from="320630988#1" to="488626362"/>
    <trip id="bike158" type="bike_bicycle" depart="790.00" departLane="best" departSpeed="max" from="100348903#2.86" to="251816565#0"/>
    <trip id="bike159" type="bike_bicycle" depart="795.00" departLane="best" from="-245941530#1" to="69851767"/>
    <trip id="bike160" type="bike_bicycle" depart="800.00" departLane="best" from="420551633#4" to="922576604#1"/>
    <trip id="bike161" type="bike_bicycle" depart="805.00" departLane="best" from="360787852#2" to="475170458"/>
    <trip id="bike162" type="bike_bicycle" depart="810.00" departLane="best" departSpeed="max" from="-130540642" to="320202776"/>
    <trip id="bike163" type="bike_bicycle" depart="815.00" departLane="best" departSpeed="max" from="-500582852" to="724854350#1"/>
    <trip id="bike164" type="bike_bicycle" depart="820.00" departLane="best" from="35899344#7" to="44828692#2"/>
    <trip id="bike165" type="bike_bicycle" depart="825.00" departLane="best" from="360787852#2" to="-421517196#0"/>
    <trip id="bike166" type="bike_bicycle" depart="830.00" departLane="best" from="334457598#0" to="-219005861"/>
    <trip id="bike167" type="bike_bicycle" depart="835.00" departLane="best" from="429104325#1" to="44827812#1"/>
    <trip id="bike168" type="bike_bicycle" depart="840.00" departLane="best" from="-300068767#5" to="40103023#0"/>
    <trip id="bike169" type="bike_bicycle" depart="845.00" departLane="best" from="149352823#1" to="-600442773#2"/>
    <trip id="bike170" type="bike_bicycle" depart="850.00" departLane="best" from="356166740#5" to="-358953079"/>
    <trip id="bike171" type="bike_bicycle" depart="855.00" departLane="best" from="-130292995#3" to="-28297618#0"/>
    <trip id="bike172" type="bike_bicycle" depart="860.00" departLane="best" departSpeed="max" from="-488626362" to="44828709"/>
    <trip id="bike173" type="bike_bicycle" depart="865.00" departLane="best" from="860204581#0" to="-44828577#4"/>
    <trip id="bike174" type="bike_bicycle" depart="870.00" departLane="best" from="240679935#1" to="149942614#1"/>
    <trip id="bike175" type="bike_bicycle" depart="875.00" departLane="best" from="930192518" to="215925961#3"/>
    <trip id="bike176" type="bike_bicycle" depart="880.00" departLane="best" from="64973069#0" to="-227992739#0"/>
    <trip id="bike178" type="bike_bicycle" depart="890.00" departLane="best" from="824877555#0" to="-420551649"/>
    <trip id="bike179" type="bike_bicycle" depart="895.00" departLane="best" departSpeed="max" from="-215478533" to="152929341#1"/>
    <trip id="bike180" type="bike_bicycle" depart="900.00" departLane="best" from="27245133#0" to="-69851729#6"/>
    <trip id="bike181" type="bike_bicycle" depart="905.00" departLane="best" from="226988730#2" to="194299362"/>
    <trip id="bike182" type="bike_bicycle" depart="910.00" departLane="best" from="-898245504#1" to="235390939#0"/>
    <trip id="bike184" type="bike_bicycle" depart="920.00" departLane="best" from="-102152771#1" to="690903767"/>
    <trip id="bike185" type="bike_bicycle" depart="925.00" departLane="best" from="183657245#2" to="305823735"/>
    <trip id="bike186" type="bike_bicycle" depart="930.00" departLane="best" from="27429644#2" to="27134173"/>
    <trip id="bike187" type="bike_bicycle" depart="935.00" departLane="best" departSpeed="max" from="-744253800#1" to="-178081901#2"/>
    <trip id="bike188" type="bike_bicycle" depart="940.00" departLane="best" from="251103973#4" to="-900644913"/>
    <trip id="bike189" type="bike_bicycle" depart="945.00" departLane="best" from="-44828710#0" to="4400845#1"/>
    <trip id="bike190" type="bike_bicycle" depart="950.00" departLane="best" from="27244248#0" to="-53590600"/>
    <trip id="bike191" type="bike_bicycle" depart="955.00" departLane="best" from="-44828412#11" to="150546877#2"/>
    <trip id="bike192" type="bike_bicycle" depart="960.00" departLane="best" departSpeed="max" from="-972789501" to="-520824524#3"/>
    <trip id="bike193" type="bike_bicycle" depart="965.00" departLane="best" from="-227062819#2" to="150771745"/>
    <trip id="bike194" type="bike_bicycle" depart="970.00" departLane="best" from="659292417#0" to="27244831"/>
    <trip id="bike195" type="bike_bicycle" depart="975.00" departLane="best" from="46022759#0" to="249461334#4"/>
    <trip id="bike196" type="bike_bicycle" depart="980.00" departLane="best" from="-429065350#1" to="220677168#1"/>
    <trip id="bike197" type="bike_bicycle" depart="985.00" departLane="best" from="-101123155" to="-46022759#1"/>
    <trip id="bike198" type="bike_bicycle" depart="990.00" departLane="best" from="112796201#1" to="235391643#1"/>
    <trip id="bike199" type="bike_bicycle" depart="995.00" departLane="best" from="245941530#4" to="175556900#0"/>
    <trip id="bike200" type="bike_bicycle" depart="1000.00" departLane="best" departSpeed="max" from="127319591" to="-323017515"/>
    <trip id="bike201" type="bike_bicycle" depart="1005.00" departLane="best" from="150549253#4.62" to="532149775#2"/>
    <trip id="bike202" type="bike_bicycle" depart="1010.00" departLane="best" departSpeed="max" from="356166742" to="-27244037"/>
    <trip id="bike203" type="bike_bicycle" depart="1015.00" departLane="best" from="-187628785#0" to="196961274#1"/>
    <trip id="bike204" type="bike_bicycle" depart="1020.00" departLane="best" from="238871711#1" to="-94586280#1"/>
    <trip id="bike205" type="bike_bicycle" depart="1025.00" departLane="best" from="366073469#1" to="35014371#0"/>
    <trip id="bike206" type="bike_bicycle" depart="1030.00" departLane="best" from="253488970#1" to="-351669230#1"/>
    <trip id="bike207" type="bike_bicycle" depart="1035.00" departLane="best" departSpeed="max" from="-27245131#1" to="-134396607#1"/>
    <trip id="bike208" type="bike_bicycle" depart="1040.00" departLane="best" departSpeed="max" from="-335090751#1" to="181490370#1"/>
    <trip id="bike209" type="bike_bicycle" depart="1045.00" departLane="best" from="398942405" to="-182489865"/>
    <trip id="bike211" type="bike_bicycle" depart="1055.00" departLane="best" from="-27244832#3" to="27418198#2"/>
    <trip id="bike212" type="bike_bicycle" depart="1060.00" departLane="best" from="151789087#2" to="-376846890#0"/>
    <trip id="bike213" type="bike_bicycle" depart="1065.00" departLane="best" from="24608196#5" to="-104363155#1"/>
    <trip id="bike215" type="bike_bicycle" depart="1075.00" departLane="best" from="-211994457#1" to="150857994#2"/>
    <trip id="bike216" type="bike_bicycle" depart="1080.00" departLane="best" departSpeed="max" from="-263860659#1" to="86202842"/>
    <trip id="bike217" type="bike_bicycle" depart="1085.00" departLane="best" from="165849633" to="-152929341#3"/>
    <trip id="bike218" type="bike_bicycle" depart="1090.00" departLane="best" from="-350679381" to="4400845#4"/>
    <trip id="bike219" type="bike_bicycle" depart="1095.00" departLane="best" departSpeed="max" from="142248731#0" to="38152916#2"/>
    <trip id="bike220" type="bike_bicycle" depart="1100.00" departLane="best" from="251816552" to="972789502#1"/>
    <trip id="bike221" type="bike_bicycle" depart="1105.00" departLane="best" from="218061155" to="833735832"/>
    <trip id="bike222" type="bike_bicycle" depart="1110.00" departLane="best" from="44828412#13" to="248546432"/>
    <trip id="bike223" type="bike_bicycle" depart="1115.00" departLane="best" from="27244043" to="191003931#0"/>
    <trip id="bike225" type="bike_bicycle" depart="1125.00" departLane="best" from="44828761#3" to="33083165#0"/>
    <trip id="bike226" type="bike_bicycle" depart="1130.00" departLane="best" from="150554193#2" to="-402016813#0"/>
    <trip id="bike227" type="bike_bicycle" depart="1135.00" departLane="best" from="-35014374#0" to="254954205"/>
    <trip id="bike228" type="bike_bicycle" depart="1140.00" departLane="best" from="305829909#2" to="206306024"/>
    <trip id="bike229" type="bike_bicycle" depart="1145.00" departLane="best" from="235390939#4" to="-442789059"/>
    <trip id="bike230" type="bike_bicycle" depart="1150.00" departLane="best" from="-181337926#1" to="-46022237#5"/>
    <trip id="bike231" type="bike_bicycle" depart="1155.00" departLane="best" from="-376846890#1" to="-80599432#1"/>
    <trip id="bike232" type="bike_bicycle" depart="1160.00" departLane="best" from="185574410#2" to="-245941530#4"/>
    <trip id="bike233" type="bike_bicycle" depart="1165.00" departLane="best" from="-309740480#4" to="27261757#0"/>
    <trip id="bike234" type="bike_bicycle" depart="1170.00" departLane="best" from="269017600#0" to="-174379435"/>
    <trip id="bike235" type="bike_bicycle" depart="1175.00" departLane="best" from="101123153" to="217387501"/>
    <trip id="bike236" type="bike_bicycle" depart="1180.00" departLane="best" from="1039835953" to="-306029065#5"/>
    <trip id="bike237" type="bike_bicycle" depart="1185.00" departLane="best" from="107085648#2" to="556415250"/>
    <trip id="bike238" type="bike_bicycle" depart="1190.00" departLane="best" from="211994457#1" to="27391700"/>
    <trip id="bike239" type="bike_bicycle" depart="1195.00" departLane="best" from="404599857#0" to="35951507#1"/>
    <trip id="bike241" type="bike_bicycle" depart="1205.00" departLane="best" from="-61917693#0" to="350576238#3"/>
    <trip id="bike242" type="bike_bicycle" depart="1210.00" departLane="best" departSpeed="max" from="402016810#0" to="851760422"/>
    <trip id="bike243" type="bike_bicycle" depart="1215.00" departLane="best" from="107085646#1" to="332237966"/>
    <trip id="bike244" type="bike_bicycle" depart="1220.00" departLane="best" from="187628749#0" to="24534243#1"/>
    <trip id="bike245" type="bike_bicycle" depart="1225.00" departLane="best" departSpeed="max" from="-299637114" to="-339381135#1"/>
    <trip id="bike246" type="bike_bicycle" depart="1230.00" departLane="best" from="121817387#3" to="-149951200#1"/>
    <trip id="bike247" type="bike_bicycle" depart="1235.00" departLane="best" from="-53040718#8" to="27244832#3"/>
    <trip id="bike248" type="bike_bicycle" depart="1240.00" departLane="best" departSpeed="max" from="-998974820#1" to="-270684568#9"/>
    <trip id="bike249" type="bike_bicycle" depart="1245.00" departLane="best" from="150393270#6" to="-240348395#5"/>
    <trip id="bike250" type="bike_bicycle" depart="1250.00" departLane="best" from="232947458#1" to="-142248731#0"/>
    <trip id="bike251" type="bike_bicycle" depart="1255.00" departLane="best" departSpeed="max" from="-922505598" to="229679022"/>