<!-- <?xml version="1.0" encoding="UTF-8"?> -->
<routes xmlns:xsi="http://www.w3.org/2001/XMLSchema-instance" xsi:noNamespaceSchemaLocation="http://sumo.dlr.de/xsd/routes_file.xsd">
    <vType id="car" vClass="passenger" color="1,0,0"/>
    <route id="route0" edges="1 2 3 4"/>
    <flow id="flow0" begin="0" end="3600" vehsPerHour="100" type="car" route="route0"/>
</routes>
