<?xml version="1.0" encoding="UTF-8"?>

<!-- generated on 2023-07-14 15:52:25.951453 by gtfs2pt.py v1_17_0+0000-737931d58da
<configuration>
    <gtfs value="rnv_gtfs.zip"/>
    <date value="20230619"/>
    <network value="C:\Users\Jakob\Projekte\mannheim-sumo\osm.net.xml"/>
</configuration>
-->

<routes xmlns:xsi="http://www.w3.org/2001/XMLSchema-instance" xsi:noNamespaceSchemaLocation="http://sumo.dlr.de/xsd/routes_file.xsd">
    <route id="102-1-6-89100" edges="999614640">
        <stop busStop="999614640:24.98" duration="10" until="0"/>
    </route>
    <route id="102-2-6-87540" edges="999614640">
        <stop busStop="999614640:24.98" duration="10" until="0"/>
    </route>
    <route id="103-852-5-14520" edges="E10_P7 E19_y8 E21_y8 380637201 23148901#0 23148901#1 23148901#2 466081172 466082124 466081173#0 466081173#1 -215971173#0 39649924#2 40104609#0 40104609#1 40104609#2 40104609#3 40104609#4 40104609#5 40104609#6 40104609#7 206833543 165545297#1 429065347 214253509#1 217493751 473947957#0 257675381 388280855#0 388280855#2 388280855#3 388280855#4 373426448#1 373426448#2 24685084#0 24685085 280873251#0 947141672#3">
        <stop busStop="E10_P7:13.00" duration="10" until="0"/>
        <stop busStop="23148901#0:13.00" duration="10" until="60"/>
        <stop busStop="-215971173#0:20.85" duration="10" until="120"/>
        <stop busStop="40104609#6:45.75" duration="10" until="180"/>
        <stop busStop="165545297#1:89.89" duration="10" until="240"/>
        <stop busStop="388280855#4:68.75" duration="10" until="360"/>
        <stop busStop="947141672#3:53.50" duration="10" until="480"/>
    </route>
    <route id="106-201-5-88200" edges="-150554195#3 31045126#1 258979265#1 628505597 165849631 1055826508 1062460664 -1055826509 -1064398602#1 -1064398602#0 150556234#1 165823635 626345991 181337926#0 181337926#1 548514763#0 189876499 160173625 360785921#0 360785921#1 5111851 360785920#0 190340308 E2_vu3 E3_vu3 56186954 56186952 922053740 35134167#0 35134167#2 35134167#3 276412885 276412658 189877634#0 906995424#1 96747818#0 96747818#1 96747818#2 96747818#3 -778989039#3 -778989039#2 -778989039#1 -778989039#0 -280873255 -280873263#1 -249143137 947141672#3 280873259#0 280873259#15 280873259#15.22 190451409 190451409.10 269040904 230602993 190438083#1 269040907#0 269040907#1 204400292 251109201 187060050#2 -282331231#1 -282331231#0 24620501#0 24620501#1 890797552#0 890797552#1 108404033#2 165720108#2.22 165720108#3 165720108#4 165720108#5 165720108#6 165720108#7 165720108#8 165720108#9 35951507#1 150893564#2 189764998 189764999#0 189764716#0 189764716#1 189764717#0 190463206#1 95170275 95170275.39 93785463#0 93785463#0.10 93785463#0.22 93785463#1 190458990#0 151788685 269017597#0 269017597#1 1085759979#0 1085759979#1 1085759979#3 1085759981#0 1085759981#1 190458063 190458064#2 190458064#3">
        <stop busStop="-150554195#3:13.00" duration="10" until="0"/>
        <stop busStop="1062460664:15.36" duration="10" until="180"/>
        <stop busStop="-280873255:13.00" duration="10" until="300"/>
        <stop busStop="947141672#3:53.50" duration="10" until="420"/>
        <stop busStop="230602993:31.57" duration="10" until="480"/>
        <stop busStop="269040907#1:51.23" duration="10" until="510"/>
        <stop busStop="-282331231#0:15.52" duration="10" until="600"/>
        <stop busStop="165720108#2.22:25.45" duration="10" until="660"/>
        <stop busStop="165720108#4:167.01" duration="10" until="720"/>
        <stop busStop="165720108#7:70.94" duration="10" until="780"/>
        <stop busStop="189764716#0:16.72" duration="10" until="840"/>
        <stop busStop="1085759979#0:37.96" duration="10" until="900"/>
        <stop busStop="190458064#3:52.22" duration="10" until="960"/>
    </route>
    <route id="106-211-6-16860" edges="189764716#0 189764716#1 189764717#0 190463206#1 95170275 95170275.39 93785463#0 93785463#0.10 93785463#0.22 93785463#1 190458990#0 151788685 269017597#0 269017597#1 1085759979#0 1085759979#1 1085759979#3 1085759981#0 1085759981#1 190458063 190458064#2 190458064#3">
        <stop busStop="189764716#0:16.72" duration="10" until="0"/>
        <stop busStop="1085759979#0:37.96" duration="10" until="60"/>
        <stop busStop="190458064#3:52.22" duration="10" until="90"/>
    </route>
    <route id="106-212-5-17340" edges="4084172 114389127#1 114389127#2 114389127#3 114389127#4 377905808#0 377905808#2 377905809#0 377905809#2 377905809#3 377905809#3.32 377905809#4 269017600#0 269017600#1 163440758 42760868 269017594 269017594.12 269017594.14 95170298 95170298.51 204976967 204976967.4 93785348 55608997 53573995#2 189764669#0 164152502#4 164152502#6 164152502#7 164152502#8 164152502#9 164152502#10 164152502#11 164152502#12 164152502#13 164152502#14 164152502#14.95 164152502#15 164152502#16 164152502#17 164152502#18 164152502#18.7 164152502#18.36">
        <stop busStop="4084172:13.00" duration="10" until="0"/>
        <stop busStop="114389127#2:96.59" duration="10" until="60"/>
        <stop busStop="377905809#3.32:13.00" duration="10" until="120"/>
        <stop busStop="189764669#0:13.00" duration="10" until="240"/>
        <stop busStop="164152502#6:103.28" duration="10" until="300"/>
        <stop busStop="164152502#11:77.68" duration="10" until="360"/>
        <stop busStop="164152502#18.36:19.43" duration="10" until="480"/>
    </route>
    <route id="106-213-5-24900" edges="1085759979#0 1085759979#1 1085759979#3 1085759981#0 1085759981#1 190458063 190458064#2 190458064#3">
        <stop busStop="1085759979#0:37.96" duration="10" until="0"/>
        <stop busStop="190458064#3:52.22" duration="10" until="60"/>
    </route>
    <route id="106-214-5-19140" edges="4084172 114389127#1 114389127#2 114389127#3 114389127#4 377905808#0 377905808#2 377905809#0 377905809#2 377905809#3 377905809#3.32 377905809#4 269017600#0 269017600#1 163440758 42760868 269017594 269017594.12 269017594.14 95170298 95170298.51 204976967 204976967.4 93785348 55608997 53573995#2 189764669#0 164152502#4 164152502#6 164152502#7 164152502#8 164152502#9 164152502#10 164152502#11 164152502#12 164152502#13 164152502#14 164152502#14.95 164152502#15 164152502#16 164152502#17 164152502#18 164152502#18.7 164152502#18.36">
        <stop busStop="4084172:13.00" duration="10" until="0"/>
        <stop busStop="114389127#2:96.59" duration="10" until="60"/>
        <stop busStop="377905809#3.32:13.00" duration="10" until="120"/>
        <stop busStop="189764669#0:13.00" duration="10" until="240"/>
        <stop busStop="164152502#6:103.28" duration="10" until="300"/>
        <stop busStop="164152502#11:77.68" duration="10" until="360"/>
        <stop busStop="164152502#18.36:19.43" duration="10" until="480"/>
    </route>
    <route id="107-201-5-85980" edges="85270636#1 999663994#14 249143137 280873263#1 280873255 778989039#0 778989039#1 778989039#2 778989039#3 781419324 404599852 7980452#1 7980452#2 107085644 191003930#0 150556234#1 165823636 227062816 165828294#0 -150554195#1 97301292#1 360248182#0 360248182#2 165823636 227062816 165828294#0 581663849 360248203#1 360248203#2 360248191 360248194 360248197#0 360248197#1 360248209#1 268931670 268931671 268931671.29 4235244 999614640 164095588#2 305325048#0 305325048#0.14 659292417#0 659292417#1 4404114#0 4404114#1 4404114#3 4404114#4 231285503#0 231285503#1 231285503#2 231285503#3 231285503#4 165849626 4404113#0 4404113#1 4404113#2 4404113#3 4404113#5 268931687 376865405#3 376865390#1 268931678 268931683#1 E3_n2 305325048#0.14 305325046 305325049#0 305325049#1 305325049#2 236994807 236994808 252024823#0 252024823#2 268931656 236995001 268931659#0 4084166 268931652 42760136 268931654#1 42760135#2 42760135#3 880134845 305869959#1 898539695 4084169 53040717 323709010">
        <stop busStop="85270636#1:86.58" duration="10" until="0"/>
        <stop busStop="778989039#3:56.23" duration="10" until="120"/>
        <stop busStop="97301292#1:13.00" duration="10" until="420"/>
        <stop busStop="4404113#3:13.11" duration="10" until="480"/>
        <stop busStop="376865390#1:13.00" duration="10" until="600"/>
        <stop busStop="236995001:32.38" duration="10" until="780"/>
        <stop busStop="880134845:31.33" duration="10" until="900"/>
        <stop busStop="323709010:23.54" duration="10" until="960"/>
    </route>
    <route id="107-201-5-85980.trimmed" edges="4404113#3 4404113#5 268931687 376865405#3 376865390#1 268931678 268931683#1 E3_n2 305325048#0.14 305325046 305325049#0 305325049#1 305325049#2 236994807 236994808 252024823#0 252024823#2 268931656 236995001 268931659#0 4084166 268931652 42760136 268931654#1 42760135#2 42760135#3 880134845 305869959#1 898539695 4084169 53040717 323709010">
        <stop busStop="4404113#3:13.11" duration="10" until="0"/>
        <stop busStop="376865390#1:13.00" duration="10" until="120"/>
        <stop busStop="236995001:32.38" duration="10" until="300"/>
        <stop busStop="880134845:31.33" duration="10" until="420"/>
        <stop busStop="323709010:23.54" duration="10" until="480"/>
    </route>
    <route id="107-411-5-15780" edges="85270636#1 999663994#14 249143137 280873263#1 280873255 778989039#0 778989039#1 778989039#2 778989039#3 781419324 404599852 7980452#1 7980452#2 107085644 191003930#0 150556234#1 165823636 227062816 165828294#0 -150554195#1">
        <stop busStop="85270636#1:86.58" duration="10" until="0"/>
        <stop busStop="778989039#3:56.23" duration="10" until="120"/>
        <stop busStop="-150554195#1:54.86" duration="10" until="300"/>
    </route>
    <route id="107-472-5-13800" edges="251065565 176570669#1 185573957#0 150663777 237278283 237278282#3 268931664#1 268931665 268931665.34 4084166 268931652 187060053#0 187060055 53175058 315426061 315426062 150000852 189773010#0">
        <stop busStop="251065565:13.00" duration="10" until="0"/>
        <stop busStop="268931665:13.00" duration="10" until="60"/>
        <stop busStop="53175058:34.45" duration="10" until="180"/>
        <stop busStop="189773010#0:21.56" duration="10" until="240"/>
    </route>
    <route id="107-475-5-15780" edges="280873259#0 280873259#15 280873259#15.22 190451409 190451409.10 269040904 230602993 190438083#1 269040907#0 269040907#1 149899941 253488977#0 42760138 149904354 460396653 218778912 268931658 42760136 268931654#1 42760135#2 42760135#3 880134845 305869959#1 898539695 4084169 53040717 323709010">
        <stop busStop="280873259#15:13.00" duration="10" until="0"/>
        <stop busStop="230602993:31.57" duration="10" until="60"/>
        <stop busStop="268931658:30.58" duration="10" until="180"/>
        <stop busStop="880134845:31.33" duration="10" until="240"/>
        <stop busStop="323709010:23.54" duration="10" until="300"/>
    </route>
    <route id="109-2-1-27480" edges="4084172 114389127#1 114389127#2 114389127#3 114389127#4 377905808#0 377905808#2 377905809#0 377905809#2 377905809#3 377905809#3.32 377905809#4 269017600#0 269017600#1 163440758 42760868 269017594 269017594.12 269017594.14 95170298 95170298.51 204976967 204976967.4 93785348 55608997 53573995#2 189764669#0">
        <stop busStop="4084172:13.00" duration="10" until="0"/>
        <stop busStop="114389127#2:96.59" duration="10" until="60"/>
        <stop busStop="377905809#3.32:13.00" duration="10" until="120"/>
        <stop busStop="189764669#0:13.00" duration="10" until="240"/>
    </route>
    <route id="450-11-1-71520" edges="377905809#3.32">
        <stop busStop="377905809#3.32:13.00" duration="10" until="0"/>
    </route>
    <route id="450-12-1-32400" edges="377905809#3.32">
        <stop busStop="377905809#3.32:13.00" duration="10" until="0"/>
    </route>
    <route id="450-13-1-32700" edges="377905809#3.32">
        <stop busStop="377905809#3.32:13.00" duration="10" until="0"/>
    </route>
    <route id="53-1-1-21180" edges="35929667.403 35929662 190029436 190029435 376846888 402016776 40584784 187060049#0 187060049#1 561882212 561882212.15 42760132 42760132.34 85270645 85270645.86 320185351 320185351.9 320185500#0 320185500#1 270655640 270655641 189899508 360065008 360065008.17 268931672#0 268931670 268931671 268931671.29 4235244 999614640">
        <stop busStop="35929667.403:13.00" duration="10" until="0"/>
        <stop busStop="999614640:24.98" duration="10" until="240"/>
    </route>
    <route id="53-1-1-83580.trimmed" edges="999614640">
        <stop busStop="999614640:24.98" duration="10" until="0"/>
    </route>
    <route id="53-13-1-18540" edges="999614640">
        <stop busStop="999614640:24.98" duration="10" until="0"/>
    </route>
    <route id="53-14-1-84660" edges="999614640">
        <stop busStop="999614640:24.98" duration="10" until="0"/>
    </route>
    <route id="53-15-1-19980" edges="999614640">
        <stop busStop="999614640:24.98" duration="10" until="0"/>
    </route>
    <route id="53-2-1-18660" edges="999614640">
        <stop busStop="999614640:24.98" duration="10" until="0"/>
    </route>
    <route id="60-1-1060-31740" edges="-999862407 -320252634#12 -320252634#11 -320252634#10 -320252634#9 -320252634#8 -320252634#5 -320252634#3 -320252634#2 -320252634#1 -320252634#0 -265910769 320222738#1 320239492#0 -104363155#1 24377359 56185654 56185655#0 56185655#1 189776524 216879574#1 216879574#2 216879574#3 216879574#4 216879574#5 216879574#6 165825311#0 165825311#1 165825311#2 190340308 E2_vu3 E3_vu3 56186954 56186952 922053740 35134167#0 35134167#2 35134167#3 276412885 276412658 189877634#0 906995424#1 96747818#0 96747818#1 96747818#2 96747818#3 -778989039#3 -778989039#2 -778989039#1 -778989039#0 -280873255 -280873263#1 -249143137 947141672#3 280873259#0 280873259#15 280873259#15.22 190451409 190451409.10 269040904 230602993 190438083#1 269040907#0 269040907#1 149899941 253488977#0 42760138 149904354 460396653 53175058 315426061 315426062 204400292 251109201 187060050#2 781345962 300035524 150857432#2 93785423 253488957#0 253488944 94586305 500261498 94586298 500261497 53175165 53175164#0 53175164#2 188462504 8067182#1 8067182#2 389119564#1 183656812 269017591#0 269017591#1 -315426060#3 -315426060#2 -315426060#0 -253540569#1 -253540569#0">
        <stop busStop="-999862407:13.00" duration="10" until="0"/>
        <stop busStop="-320252634#8:13.00" duration="10" until="60"/>
        <stop busStop="-265910769:13.00" duration="10" until="120"/>
        <stop busStop="216879574#4:13.00" duration="10" until="240"/>
        <stop busStop="165825311#1:17.47" duration="10" until="300"/>
        <stop busStop="189877634#0:49.85" duration="10" until="420"/>
        <stop busStop="-280873255:13.00" duration="10" until="540"/>
        <stop busStop="947141672#3:53.50" duration="10" until="720"/>
        <stop busStop="230602993:31.57" duration="10" until="840"/>
        <stop busStop="315426061:20.05" duration="10" until="1020"/>
        <stop busStop="253488957#0:68.06" duration="10" until="1140"/>
        <stop busStop="53175165:13.00" duration="10" until="1200"/>
        <stop busStop="53175164#0:118.49" duration="10" until="1260"/>
        <stop busStop="53175164#2:203.18" duration="10" until="1320"/>
        <stop busStop="-253540569#0:33.54" duration="10" until="1500"/>
    </route>
    <route id="60-12-1-19080" edges="85270636#1 999663994#14 249143137 280873263#1 280873255 778989039#0 778989039#1 778989039#2 778989039#3 781419324 404599852 404599853 251157594 548514764#2 548514763#0 189876499 160173625 360785921#0 360785921#1 5111851 360785920#0 190340308 E2_vu3 E3_vu3 E4_vu3 399741671 E0 E0.10 190340312.8 216879571 674280493 102774826 102749569 359947001 187057793#0 190340309 320252264 265910769 320252634#0 320252634#1 320252634#2 320252634#3 320252634#5 320252634#7 320252634#9 320252634#10 320252634#11 320252634#12 402016777#1 150549242#0 150549242#1 190340310#0 190340310#1 371306931 182489958 930192517#0 930192517#1 -182489863 -229917857#1 229917854 -56185657#2 -56185657#0">
        <stop busStop="85270636#1:86.58" duration="10" until="0"/>
        <stop busStop="778989039#3:56.23" duration="10" until="120"/>
        <stop busStop="548514764#2:32.65" duration="10" until="300"/>
        <stop busStop="E4_vu3:13.00" duration="10" until="360"/>
        <stop busStop="320252634#0:13.00" duration="10" until="480"/>
        <stop busStop="320252634#5:13.00" duration="10" until="540"/>
        <stop busStop="190340310#1:13.00" duration="10" until="600"/>
        <stop busStop="-56185657#0:28.79" duration="10" until="660"/>
    </route>
    <route id="60-2-1060-19500" edges="85270636#1 999663994#14 249143137 280873263#1 280873255 778989039#0 778989039#1 778989039#2 778989039#3 781419324 404599852 404599853 251157594 548514764#2 548514763#0 189876499 160173625 360785921#0 360785921#1 5111851 360785920#0 190340308 E2_vu3 E3_vu3 E4_vu3 399741671 E0 E0.10 190340312.8 216879571 674280493 102774826 102749569 359947001 187057793#0 190340309 320252264 265910769 320252634#0 320252634#1 320252634#2 320252634#3 320252634#5 320252634#7 320252634#9 320252634#10 320252634#11 320252634#12 402016777#1 150549242#0 150549242#1 190340310#0 190340310#1 371306931 182489958 930192517#0 930192517#1 -182489863 -229917857#1 229917854 -56185657#2 -56185657#0">
        <stop busStop="85270636#1:13.00" duration="10" until="0"/>
        <stop busStop="85270636#1:86.58" duration="10" until="180"/>
        <stop busStop="778989039#3:56.23" duration="10" until="300"/>
        <stop busStop="548514764#2:32.65" duration="10" until="480"/>
        <stop busStop="E4_vu3:13.00" duration="10" until="540"/>
        <stop busStop="320252634#0:13.00" duration="10" until="660"/>
        <stop busStop="320252634#5:13.00" duration="10" until="720"/>
        <stop busStop="190340310#1:13.00" duration="10" until="780"/>
        <stop busStop="-56185657#0:28.79" duration="10" until="840"/>
    </route>
    <route id="60-23-1060-20280" edges="-999862407 -320252634#12 -320252634#11 -320252634#10 -320252634#9 -320252634#8 -320252634#5 -320252634#3 -320252634#2 -320252634#1 -320252634#0 -265910769 320222738#1 320239492#0 -104363155#1 24377359 56185654 56185655#0 56185655#1 189776524 216879574#1 216879574#2 216879574#3 216879574#4 216879574#5 216879574#6 165825311#0 165825311#1 165825311#2 190340308 E2_vu3 E3_vu3 56186954 56186952 922053740 35134167#0 35134167#2 35134167#3 276412885 276412658 189877634#0 906995424#1 96747818#0 96747818#1 96747818#2 96747818#3 -778989039#3 -778989039#2 -778989039#1 -778989039#0 -280873255 -280873263#1 -249143137 947141672#3 280873259#0 280873259#15 280873259#15.22 190451409 190451409.10 269040904 230602993 190438083#1 269040907#0 269040907#1 204400292 251109201 187060050#2 781345962 300035524 150857432#2 93785423 253488957#0 253488944 94586305 500261498 94586298 500261497 53175165 53175164#0 53175164#2 188462504 8067182#1 8067182#2 389119564#1 183656812 269017591#0 269017591#1 -315426060#3 -315426060#2 -315426060#0 -253540569#1 -253540569#0">
        <stop busStop="-999862407:13.00" duration="10" until="0"/>
        <stop busStop="-320252634#8:13.00" duration="10" until="60"/>
        <stop busStop="-265910769:13.00" duration="10" until="120"/>
        <stop busStop="216879574#4:13.00" duration="10" until="240"/>
        <stop busStop="165825311#1:17.47" duration="10" until="300"/>
        <stop busStop="189877634#0:49.85" duration="10" until="420"/>
        <stop busStop="-280873255:13.00" duration="10" until="540"/>
        <stop busStop="947141672#3:53.50" duration="10" until="720"/>
        <stop busStop="230602993:31.57" duration="10" until="840"/>
        <stop busStop="269040907#1:51.23" duration="10" until="900"/>
        <stop busStop="253488957#0:68.06" duration="10" until="1020"/>
        <stop busStop="53175165:13.00" duration="10" until="1080"/>
        <stop busStop="53175164#0:118.49" duration="10" until="1140"/>
        <stop busStop="53175164#2:203.18" duration="10" until="1200"/>
        <stop busStop="-253540569#0:33.54" duration="10" until="1380"/>
    </route>
    <route id="60-24-1-68280" edges="85270636#1 999663994#14 249143137 280873263#1 280873255 778989039#0 778989039#1 778989039#2 778989039#3 781419324 404599852 404599853 251157594 548514764#2 548514763#0 189876499 160173625 360785921#0 360785921#1 5111851 360785920#0 190340308 E2_vu3 E3_vu3 E4_vu3 399741671 E0 E0.10 190340312.8 216879571 674280493 102774826 102749569 359947001 187057793#0 190340309 320252264 265910769 320252634#0 320252634#1 320252634#2 320252634#3 320252634#5 320252634#7 320252634#9 320252634#10 320252634#11 320252634#12 402016777#1 150549242#0 150549242#1 190340310#0 190340310#1 371306931 182489958 930192517#0 930192517#1 -182489863 -229917857#1 229917854 -56185657#2 -56185657#0">
        <stop busStop="85270636#1:86.58" duration="10" until="0"/>
        <stop busStop="778989039#3:56.23" duration="10" until="120"/>
        <stop busStop="548514764#2:32.65" duration="10" until="300"/>
        <stop busStop="E4_vu3:13.00" duration="10" until="360"/>
        <stop busStop="320252634#0:13.00" duration="10" until="480"/>
        <stop busStop="320252634#5:13.00" duration="10" until="540"/>
        <stop busStop="190340310#1:13.00" duration="10" until="600"/>
        <stop busStop="-56185657#0:28.79" duration="10" until="660"/>
    </route>
    <route id="60-27-1-70680" edges="-999862407 -320252634#12 -320252634#11 -320252634#10 -320252634#9 -320252634#8 -320252634#5 -320252634#3 -320252634#2 -320252634#1 -320252634#0 -265910769 320222738#1 320239492#0 -104363155#1 24377359 56185654 56185655#0 56185655#1 189776524 216879574#1 216879574#2 216879574#3 216879574#4 216879574#5 216879574#6 165825311#0 165825311#1 165825311#2 190340308 E2_vu3 E3_vu3 56186954 56186952 922053740 35134167#0 35134167#2 35134167#3 276412885 276412658 189877634#0 906995424#1 96747818#0 96747818#1 96747818#2 96747818#3 -778989039#3 -778989039#2 -778989039#1 -778989039#0 -280873255 -280873263#1 -249143137 947141672#3 280873259#0">
        <stop busStop="-999862407:13.00" duration="10" until="0"/>
        <stop busStop="-320252634#8:13.00" duration="10" until="60"/>
        <stop busStop="-265910769:13.00" duration="10" until="120"/>
        <stop busStop="216879574#4:13.00" duration="10" until="240"/>
        <stop busStop="165825311#1:17.47" duration="10" until="300"/>
        <stop busStop="189877634#0:49.85" duration="10" until="420"/>
        <stop busStop="-280873255:13.00" duration="10" until="540"/>
        <stop busStop="947141672#3:53.50" duration="10" until="660"/>
    </route>
    <route id="60-3-1060-22140" edges="-999862407 -320252634#12 -320252634#11 -320252634#10 -320252634#9 -320252634#8 -320252634#5 -320252634#3 -320252634#2 -320252634#1 -320252634#0 -265910769 320222738#1 320239492#0 -104363155#1 24377359 56185654 56185655#0 56185655#1 189776524 216879574#1 216879574#2 216879574#3 216879574#4 216879574#5 216879574#6 165825311#0 165825311#1 165825311#2 190340308 E2_vu3 E3_vu3 56186954 56186952 922053740 35134167#0 35134167#2 35134167#3 276412885 276412658 189877634#0 906995424#1 96747818#0 96747818#1 96747818#2 96747818#3 -778989039#3 -778989039#2 -778989039#1 -778989039#0 -280873255 -280873263#1 -249143137 947141672#3 280873259#0 280873259#15 280873259#15.22 190451409 190451409.10 269040904 230602993 190438083#1 269040907#0 269040907#1 204400292 251109201 187060050#2 781345962 300035524 150857432#2 93785423 253488957#0 253488944 94586305 500261498 94586298 500261497 53175165 53175164#0 53175164#2 188462504 8067182#1 8067182#2 389119564#1 183656812 269017591#0 269017591#1 -315426060#3 -315426060#2 -315426060#0 -253540569#1 -253540569#0">
        <stop busStop="-999862407:13.00" duration="10" until="0"/>
        <stop busStop="-320252634#8:13.00" duration="10" until="60"/>
        <stop busStop="-265910769:13.00" duration="10" until="120"/>
        <stop busStop="216879574#4:13.00" duration="10" until="240"/>
        <stop busStop="165825311#1:17.47" duration="10" until="300"/>
        <stop busStop="189877634#0:49.85" duration="10" until="420"/>
        <stop busStop="-280873255:13.00" duration="10" until="540"/>
        <stop busStop="947141672#3:53.50" duration="10" until="720"/>
        <stop busStop="230602993:31.57" duration="10" until="840"/>
        <stop busStop="269040907#1:51.23" duration="10" until="900"/>
        <stop busStop="253488957#0:68.06" duration="10" until="1020"/>
        <stop busStop="53175165:13.00" duration="10" until="1080"/>
        <stop busStop="53175164#0:118.49" duration="10" until="1140"/>
        <stop busStop="53175164#2:203.18" duration="10" until="1200"/>
        <stop busStop="-253540569#0:33.54" duration="10" until="1380"/>
    </route>
    <route id="60-311-1-27300" edges="-999862407 -320252634#12 -320252634#11 -320252634#10 -320252634#9 -320252634#8 -320252634#5 -320252634#3 -320252634#2 -320252634#1 -320252634#0 -265910769 320222738#1 320239492#0 -104363155#1 24377359 56185654 56185655#0 56185655#1 189776524 216879574#1 216879574#2 216879574#3 216879574#4 216879574#5 216879574#6 165825311#0 165825311#1 165825311#2 190340308 E2_vu3 E3_vu3 56186954 56186952 922053740 35134167#0 35134167#2 35134167#3 276412885 276412658 189877634#0 906995424#1 96747818#0 96747818#1 96747818#2 96747818#3 -778989039#3 -778989039#2 -778989039#1 -778989039#0 -280873255 -280873263#1 -249143137 947141672#3 280873259#0">
        <stop busStop="-999862407:13.00" duration="10" until="0"/>
        <stop busStop="-320252634#8:13.00" duration="10" until="60"/>
        <stop busStop="-265910769:13.00" duration="10" until="120"/>
        <stop busStop="216879574#4:13.00" duration="10" until="240"/>
        <stop busStop="165825311#1:17.47" duration="10" until="300"/>
        <stop busStop="189877634#0:49.85" duration="10" until="420"/>
        <stop busStop="-280873255:13.00" duration="10" until="540"/>
        <stop busStop="947141672#3:53.50" duration="10" until="660"/>
    </route>
    <route id="60-322-1-18180" edges="85270636#1 999663994#14 249143137 280873263#1 280873255 778989039#0 778989039#1 778989039#2 778989039#3 781419324 404599852 404599853 251157594 548514764#2 548514763#0 189876499 160173625 360785921#0 360785921#1 5111851 360785920#0 190340308 E2_vu3 E3_vu3 E4_vu3 399741671 E0 E0.10 190340312.8 216879571 674280493 102774826 102749569 359947001 187057793#0 190340309 320252264 265910769 320252634#0 320252634#1 320252634#2 320252634#3 320252634#5 320252634#7 320252634#9 320252634#10 320252634#11 320252634#12 402016777#1 150549242#0 150549242#1 190340310#0 190340310#1 371306931 182489958 930192517#0 930192517#1 -182489863 -229917857#1 229917854 -56185657#2 -56185657#0">
        <stop busStop="85270636#1:86.58" duration="10" until="0"/>
        <stop busStop="778989039#3:56.23" duration="10" until="120"/>
        <stop busStop="548514764#2:32.65" duration="10" until="300"/>
        <stop busStop="E4_vu3:13.00" duration="10" until="360"/>
        <stop busStop="320252634#0:13.00" duration="10" until="480"/>
        <stop busStop="320252634#5:13.00" duration="10" until="540"/>
        <stop busStop="190340310#1:13.00" duration="10" until="600"/>
        <stop busStop="-56185657#0:28.79" duration="10" until="660"/>
    </route>
    <route id="61-1-1-20580" edges="999614640">
        <stop busStop="999614640:24.98" duration="10" until="0"/>
    </route>
    <route id="61-11-1-73920" edges="999614640">
        <stop busStop="999614640:24.98" duration="10" until="0"/>
    </route>
    <route id="61-11-1-85920.trimmed" edges="999614640">
        <stop busStop="999614640:24.98" duration="10" until="0"/>
    </route>
    <route id="61-12-1-72660" edges="999614640">
        <stop busStop="999614640:24.98" duration="10" until="0"/>
    </route>
    <route id="61-2-1-19860" edges="999614640">
        <stop busStop="999614640:24.98" duration="10" until="0"/>
    </route>
    <route id="62-1-1-26400" edges="56185657#2 258979227 229917857#1 182489863 190340311 164506584#0 164506584#1 164506584#3 -360037734#2 -360037734#1 -360037734#0 -306032457 306029386#0 306029386#1 306032429 -40586130#3 -40586130#2 -40586130#1 -40586130#0 149956819#0 149956819#1 149956819#2 240321453#0 240321453#1 149951202#0 149951202#1 149951202#2 149951202#3 149951202#4 149951202#5 149951202#6 149951202#7 149951203 240321445#0 240321445#1 240321445#2 240321445#3 240321445#4 240321445#5 240321445#6 240321445#7 240321445#8 240321445#9 306032644 306032645 360036562 360037729#1 306032456 306032457 360037734#0 360037734#1 360037734#2 -31648289 -164506584#1 -164506584#0 182489957#0 182489957#1 182489957#2 930192518 -371306931 -999862406 -190340310#0 -150549242#1 -150549242#0 -999862407 -376851150 402016795 40584784 187060049#0 187060049#1 561882212 561882212.15 42760132 42760132.34 85270645 85270645.86 320185351 320185351.9 320185500#0 320185500#1 270655640 270655641 189899508 360065008 360065008.17 268931672#0 268931670 268931671 268931671.29 4235244 999614640 164095588#2 305325048#0 305325048#0.14 305325046 305325049#0 305325049#1 305325049#2 236994807 236994808 252024823#0 252024823#2 268931656 236995001 268931659#0 4084166 268931652 42760136 268931654#1 42760135#2 42760135#3 880134845 305869959#1 898539695 -319999605#7 -319999605#6 -319999605#5 -319999605#4 -319999605#1 -319999605#0 -185352101 -163419466#7 -163419466#4 -163419466#3 -163419466#1 -163419466#0 69852238 269017614 269017617#0 151788685 269017597#0 269017597#1 1085759979#0 1085759979#1 1085759979#3 1085759981#0 1085759981#1 190458063 190458064#2 190458064#3">
        <stop busStop="56185657#2:13.00" duration="10" until="0"/>
        <stop busStop="-40586130#0:34.75" duration="10" until="60"/>
        <stop busStop="149956819#2:24.23" duration="10" until="90"/>
        <stop busStop="149951202#1:33.10" duration="10" until="120"/>