<?xml version="1.0" encoding="UTF-8"?>

<!-- generated on 2023-07-14 15:52:20.987704 by gtfs2pt.py v1_17_0+0000-737931d58da
<configuration>
    <gtfs value="rnv_gtfs.zip"/>
    <date value="20230619"/>
    <network value="C:\Users\Jakob\Projekte\mannheim-sumo\osm.net.xml"/>
</configuration>
-->

<additional xmlns:xsi="http://www.w3.org/2001/XMLSchema-instance" xsi:noNamespaceSchemaLocation="http://sumo.dlr.de/xsd/additional_file.xsd">
    <busStop id="999614640:24.98" lane="999614640_0" startPos="11.98" endPos="24.98" friendlyPos="true" name="Kurpfalzbrücke">
        <access friendlyPos="true" lane="-165823634#1_0" pos="27.85" length="78.12"/>
        <access friendlyPos="true" lane="-252028886#1_0" pos="9.60" length="9.65"/>
        <access friendlyPos="true" lane="-252028886#2_0" pos="51.68" length="42.04"/>
        <access friendlyPos="true" lane="-358953087_0" pos="0.00" length="77.36"/>
        <access friendlyPos="true" lane="163970105#0_0" pos="44.52" length="37.68"/>
        <access friendlyPos="true" lane="165823634#1.7_0" pos="0.00" length="84.31"/>
        <access friendlyPos="true" lane="174845336#0_0" pos="0.00" length="26.68"/>
        <access friendlyPos="true" lane="252028886#1_0" pos="50.46" length="12.65"/>
        <access friendlyPos="true" lane="252028886#2_0" pos="0.00" length="42.89"/>
        <access friendlyPos="true" lane="358953084_0" pos="8.46" length="80.43"/>
    </busStop>
    <busStop id="E10_P7:13.00" lane="E10_P7_1" startPos="0.00" endPos="13.00" friendlyPos="true" name="Franz-Sigel-Straße"/>
    <busStop id="23148901#0:13.00" lane="23148901#0_1" startPos="0.00" endPos="13.00" friendlyPos="true" name="Markuskirche">
        <access friendlyPos="true" lane="39381687#1.4_0" pos="0.00" length="49.70"/>
        <access friendlyPos="true" lane="39381687#1_0" pos="0.00" length="41.15"/>
        <access friendlyPos="true" lane="53175067#4_0" pos="15.89" length="85.10"/>
        <access friendlyPos="true" lane="E10_P7_0" pos="7.17" length="0.99"/>
        <access friendlyPos="true" lane="E11_Patrick7_0" pos="22.61" length="54.69"/>
        <access friendlyPos="true" lane="E19_y8_0" pos="0.00" length="62.76"/>
        <access friendlyPos="true" lane="E21_y8_0" pos="0.00" length="70.50"/>
        <access friendlyPos="true" lane="EMk3_0" pos="9.71" length="51.66"/>
        <access friendlyPos="true" lane="EMk4_0" pos="0.20" length="41.50"/>
        <access friendlyPos="true" lane="Emkkped_0" pos="8.57" length="24.28"/>
    </busStop>
    <busStop id="-215971173#0:20.85" lane="-215971173#0_1" startPos="7.85" endPos="20.85" friendlyPos="true" name="Meeräckerplatz"/>
    <busStop id="40104609#6:45.75" lane="40104609#6_1" startPos="32.75" endPos="45.75" friendlyPos="true" name="Diesterwegschule"/>
    <busStop id="165545297#1:89.89" lane="165545297#1_0" startPos="76.89" endPos="89.89" friendlyPos="true" name="Windeckstraße">
        <access friendlyPos="true" lane="-214228962_0" pos="80.47" length="68.43"/>
        <access friendlyPos="true" lane="-214586607#0_0" pos="0.00" length="61.90"/>
        <access friendlyPos="true" lane="1064383441#3_0" pos="33.32" length="3.24"/>
        <access friendlyPos="true" lane="1064383441#5.9_0" pos="90.02" length="24.18"/>
        <access friendlyPos="true" lane="150743092_0" pos="94.10" length="52.49"/>
        <access friendlyPos="true" lane="206972904_0" pos="68.15" length="144.81"/>
        <access friendlyPos="true" lane="214251574_0" pos="0.00" length="138.61"/>
        <access friendlyPos="true" lane="218061155_0" pos="0.00" length="75.43"/>
        <access friendlyPos="true" lane="218061157#1_0" pos="81.62" length="73.13"/>
        <access friendlyPos="true" lane="429065347_0" pos="0.00" length="59.31"/>
    </busStop>
    <busStop id="388280855#4:68.75" lane="388280855#4_1" startPos="55.75" endPos="68.75" friendlyPos="true" name="MA Hauptbahnhof Süd"/>
    <busStop id="947141672#3:53.50" lane="947141672#3_0" startPos="40.50" endPos="53.50" friendlyPos="true" name="MA Hauptbahnhof">
        <access friendlyPos="true" lane="-269029116#0_0" pos="7.57" length="16.18"/>
        <access friendlyPos="true" lane="-269029116#2_0" pos="9.88" length="29.66"/>
        <access friendlyPos="true" lane="1098919000#9_0" pos="61.44" length="22.80"/>
        <access friendlyPos="true" lane="1098919001#13_0" pos="0.00" length="1.09"/>
        <access friendlyPos="true" lane="139692077#10_0" pos="8.69" length="30.96"/>
        <access friendlyPos="true" lane="139692115#6_0" pos="10.62" length="28.81"/>
        <access friendlyPos="true" lane="174743991#2_0" pos="61.66" length="10.29"/>
        <access friendlyPos="true" lane="269029116#0_0" pos="0.00" length="8.66"/>
        <access friendlyPos="true" lane="269029116#2_0" pos="0.00" length="36.07"/>
        <access friendlyPos="true" lane="85619555_0" pos="0.00" length="36.86"/>
    </busStop>
    <busStop id="-150554195#3:13.00" lane="-150554195#3_1" startPos="0.00" endPos="13.00" friendlyPos="true" name="MA Rathaus/REM"/>
    <busStop id="1062460664:15.36" lane="1062460664_1" startPos="2.36" endPos="15.36" friendlyPos="true" name="Paradeplatz">
        <access friendlyPos="true" lane="-1055826509_0" pos="0.00" length="26.20"/>
        <access friendlyPos="true" lane="-387015255_0" pos="0.20" length="25.86"/>
        <access friendlyPos="true" lane="1055826509_0" pos="46.11" length="30.03"/>
        <access friendlyPos="true" lane="126749717#6_0" pos="0.40" length="23.99"/>
        <access friendlyPos="true" lane="249295627_0" pos="50.22" length="1.58"/>
        <access friendlyPos="true" lane="278441979_0" pos="0.76" length="10.11"/>
        <access friendlyPos="true" lane="387015255_0" pos="0.00" length="28.60"/>
        <access friendlyPos="true" lane="92156243#1_0" pos="5.50" length="25.52"/>
        <access friendlyPos="true" lane="92156243#2_0" pos="0.00" length="29.45"/>
        <access friendlyPos="true" lane="92156252_0" pos="0.00" length="32.15"/>
    </busStop>
    <busStop id="-280873255:13.00" lane="-280873255_0" startPos="0.00" endPos="13.00" friendlyPos="true" name="Universität">
        <access friendlyPos="true" lane="-190999726#2_0" pos="22.39" length="35.23"/>
        <access friendlyPos="true" lane="-39698436_0" pos="59.23" length="7.53"/>
        <access friendlyPos="true" lane="162513817_0" pos="16.26" length="44.67"/>
        <access friendlyPos="true" lane="190999726#2_0" pos="17.43" length="38.24"/>
        <access friendlyPos="true" lane="733116115_0" pos="81.82" length="47.96"/>
        <access friendlyPos="true" lane="778989038#0_0" pos="0.00" length="8.88"/>
        <access friendlyPos="true" lane="778989038#1_0" pos="0.00" length="21.81"/>
        <access friendlyPos="true" lane="778989038#2_0" pos="0.00" length="36.28"/>
        <access friendlyPos="true" lane="778989038#3_0" pos="0.00" length="46.20"/>
        <access friendlyPos="true" lane="778989038#4_0" pos="0.00" length="53.99"/>
    </busStop>
    <busStop id="230602993:31.57" lane="230602993_1" startPos="18.57" endPos="31.57" friendlyPos="true" name="Kunsthalle"/>
    <busStop id="269040907#1:51.23" lane="269040907#1_1" startPos="38.23" endPos="51.23" friendlyPos="true" name="Wasserturm"/>
    <busStop id="-282331231#0:15.52" lane="-282331231#0_0" startPos="2.52" endPos="15.52" friendlyPos="true" name="Tattersall">
        <access friendlyPos="true" lane="-309693141_0" pos="0.00" length="67.05"/>
        <access friendlyPos="true" lane="309693140_0" pos="72.08" length="68.32"/>
        <access friendlyPos="true" lane="309694556_0" pos="0.00" length="29.93"/>
        <access friendlyPos="true" lane="349817177_0" pos="31.68" length="106.89"/>
        <access friendlyPos="true" lane="349817179#0_0" pos="0.00" length="65.95"/>
        <access friendlyPos="true" lane="35953671#1_0" pos="63.10" length="66.69"/>
        <access friendlyPos="true" lane="35953671#2_0" pos="30.63" length="37.41"/>
        <access friendlyPos="true" lane="366073486_0" pos="54.50" length="117.55"/>
        <access friendlyPos="true" lane="659177133_0" pos="0.00" length="79.95"/>
        <access friendlyPos="true" lane="659177134_0" pos="0.00" length="81.68"/>
    </busStop>
    <busStop id="165720108#2.22:25.45" lane="165720108#2.22_0" startPos="12.45" endPos="25.45" friendlyPos="true" name="Werderstraße">
        <access friendlyPos="true" lane="-208424704#0_0" pos="0.00" length="26.36"/>
        <access friendlyPos="true" lane="-366073490#0_0" pos="0.00" length="36.41"/>
        <access friendlyPos="true" lane="-366073490#2_0" pos="25.38" length="1.20"/>
        <access friendlyPos="true" lane="-57846800#1_0" pos="0.00" length="38.85"/>
        <access friendlyPos="true" lane="208424704#0_0" pos="10.66" length="30.37"/>
        <access friendlyPos="true" lane="366073489#3_0" pos="67.99" length="35.83"/>
        <access friendlyPos="true" lane="366073490#1_0" pos="11.91" length="15.04"/>
        <access friendlyPos="true" lane="366073490#2_0" pos="0.00" length="27.28"/>
        <access friendlyPos="true" lane="5073616#2_0" pos="0.00" length="26.71"/>
        <access friendlyPos="true" lane="5073616#3_0" pos="0.00" length="37.94"/>
    </busStop>
    <busStop id="165720108#4:167.01" lane="165720108#4_0" startPos="154.01" endPos="167.01" friendlyPos="true" name="Pestalozzischule">
        <access friendlyPos="true" lane="-24620443#0_0" pos="0.00" length="17.95"/>
        <access friendlyPos="true" lane="-404190177#1_0" pos="35.39" length="16.26"/>
        <access friendlyPos="true" lane="-40521208#1_0" pos="13.11" length="7.82"/>
        <access friendlyPos="true" lane="-431557291_0" pos="49.54" length="38.11"/>
        <access friendlyPos="true" lane="-431557293#2_0" pos="0.00" length="21.83"/>
        <access friendlyPos="true" lane="108404025#2_0" pos="29.34" length="32.19"/>
        <access friendlyPos="true" lane="24620443#0_0" pos="77.96" length="20.26"/>
        <access friendlyPos="true" lane="404190177#1_0" pos="0.00" length="18.73"/>
        <access friendlyPos="true" lane="40521208#1_0" pos="0.00" length="8.23"/>
        <access friendlyPos="true" lane="431557293#2_0" pos="66.83" length="22.35"/>
    </busStop>
    <busStop id="165720108#7:70.94" lane="165720108#7_0" startPos="57.94" endPos="70.94" friendlyPos="true" name="Weberstraße">
        <access friendlyPos="true" lane="-190812637#1_0" pos="11.39" length="24.49"/>
        <access friendlyPos="true" lane="-193582128#1_0" pos="0.00" length="5.96"/>
        <access friendlyPos="true" lane="-193582128#2_0" pos="71.65" length="19.10"/>
        <access friendlyPos="true" lane="-24532431#1_0" pos="91.80" length="15.55"/>
        <access friendlyPos="true" lane="-24549635#0_0" pos="0.00" length="22.57"/>
        <access friendlyPos="true" lane="-46963142#3_0" pos="0.00" length="28.23"/>
        <access friendlyPos="true" lane="193582128#1_0" pos="7.89" length="12.12"/>
        <access friendlyPos="true" lane="193582128#2_0" pos="0.00" length="22.41"/>
        <access friendlyPos="true" lane="24532431#1_0" pos="0.00" length="17.90"/>
        <access friendlyPos="true" lane="24549635#0_0" pos="10.98" length="24.51"/>
    </busStop>
    <busStop id="189764716#0:16.72" lane="189764716#0_0" startPos="3.72" endPos="16.72" friendlyPos="true" name="Planetarium">
        <access friendlyPos="true" lane="-240679928#0_0" pos="0.00" length="19.20"/>
        <access friendlyPos="true" lane="-240679945#2_0" pos="0.00" length="52.63"/>
        <access friendlyPos="true" lane="-240679945#3_0" pos="41.68" length="54.99"/>
        <access friendlyPos="true" lane="-484227240_0" pos="32.22" length="64.24"/>
        <access friendlyPos="true" lane="189764716#1_0" pos="0.00" length="23.83"/>
        <access friendlyPos="true" lane="189764999#0_0" pos="10.60" length="38.30"/>
        <access friendlyPos="true" lane="240679904_0" pos="16.44" length="23.01"/>
        <access friendlyPos="true" lane="240679945#2_0" pos="3.26" length="48.41"/>
        <access friendlyPos="true" lane="240679945#3_0" pos="0.00" length="53.48"/>
        <access friendlyPos="true" lane="53573995#2_0" pos="71.89" length="21.74"/>
    </busStop>
    <busStop id="1085759979#0:37.96" lane="1085759979#0_2" startPos="24.96" endPos="37.96" friendlyPos="true" name="Luisenpark/Technoseum (BUGA 23)"/>
    <busStop id="190458064#3:52.22" lane="190458064#3_1" startPos="39.22" endPos="52.22" friendlyPos="true" name="Carl-Benz-Stadion">
        <access friendlyPos="true" lane="-175347881#1_0" pos="0.77" length="19.55"/>
        <access friendlyPos="true" lane="-175347881#2_0" pos="38.48" length="21.39"/>
        <access friendlyPos="true" lane="-175347882_0" pos="0.35" length="29.88"/>
        <access friendlyPos="true" lane="175346072#1_0" pos="47.69" length="8.71"/>
        <access friendlyPos="true" lane="175346072#2_0" pos="0.00" length="5.04"/>
        <access friendlyPos="true" lane="175347881#1_0" pos="12.64" length="14.75"/>
        <access friendlyPos="true" lane="175347881#2_0" pos="0.00" length="17.11"/>
        <access friendlyPos="true" lane="175347883#2_0" pos="0.00" length="25.34"/>
        <access friendlyPos="true" lane="175348076_0" pos="0.00" length="24.74"/>
        <access friendlyPos="true" lane="175348078_0" pos="0.84" length="3.36"/>
    </busStop>
    <busStop id="4084172:13.00" lane="4084172_0" startPos="0.00" endPos="13.00" friendlyPos="true" name="Harrlach"/>
    <busStop id="114389127#2:96.59" lane="114389127#2_0" startPos="83.59" endPos="96.59" friendlyPos="true" name="Carl-Benz-Stadion">
        <access friendlyPos="true" lane="-175347881#2_0" pos="10.15" length="58.88"/>
        <access friendlyPos="true" lane="-175347881#3_0" pos="1.18" length="63.09"/>
        <access friendlyPos="true" lane="-376865306#21_0" pos="0.00" length="58.09"/>
        <access friendlyPos="true" lane="163474880#2_0" pos="71.90" length="8.98"/>
        <access friendlyPos="true" lane="175346072#0_0" pos="188.89" length="57.11"/>
        <access friendlyPos="true" lane="175346072#1_0" pos="16.69" length="41.26"/>
        <access friendlyPos="true" lane="175347881#2_0" pos="28.33" length="54.08"/>
        <access friendlyPos="true" lane="175347881#3_0" pos="0.00" length="58.63"/>
        <access friendlyPos="true" lane="175348537_0" pos="0.00" length="66.31"/>
        <access friendlyPos="true" lane="376865306#21_0" pos="19.47" length="56.80"/>
    </busStop>
    <busStop id="377905809#3.32:13.00" lane="377905809#3.32_2" startPos="0.00" endPos="13.00" friendlyPos="true" name="Luisenpark/Technoseum (BUGA 23)"/>
    <busStop id="189764669#0:13.00" lane="189764669#0_1" startPos="0.00" endPos="13.00" friendlyPos="true" name="Planetarium"/>
    <busStop id="164152502#6:103.28" lane="164152502#6_0" startPos="90.29" endPos="103.28" friendlyPos="true" name="Weberstraße">
        <access friendlyPos="true" lane="-190812637#1_0" pos="11.39" length="21.47"/>
        <access friendlyPos="true" lane="-193582128#0_0" pos="0.00" length="10.03"/>
        <access friendlyPos="true" lane="-193582128#1_0" pos="10.18" length="18.13"/>
        <access friendlyPos="true" lane="-24549635#0_0" pos="6.13" length="39.73"/>
        <access friendlyPos="true" lane="-46963142#3_0" pos="0.00" length="21.00"/>
        <access friendlyPos="true" lane="190812637#1_0" pos="0.00" length="14.64"/>
        <access friendlyPos="true" lane="193582128#0_0" pos="72.87" length="4.51"/>
        <access friendlyPos="true" lane="193582128#1_0" pos="0.00" length="17.44"/>
        <access friendlyPos="true" lane="24549635#0_0" pos="4.03" length="43.64"/>
        <access friendlyPos="true" lane="46963142#3_0" pos="73.80" length="16.10"/>
    </busStop>
    <busStop id="164152502#11:77.68" lane="164152502#11_0" startPos="64.68" endPos="77.68" friendlyPos="true" name="Pestalozzischule">
        <access friendlyPos="true" lane="-24620443#0_0" pos="0.00" length="38.58"/>
        <access friendlyPos="true" lane="-404190177#1_0" pos="35.39" length="39.36"/>
        <access friendlyPos="true" lane="-40521208#1_0" pos="13.11" length="45.42"/>
        <access friendlyPos="true" lane="-431557291_0" pos="49.54" length="77.73"/>
        <access friendlyPos="true" lane="-431557293#2_0" pos="11.72" length="14.12"/>
        <access friendlyPos="true" lane="108404025#2_0" pos="29.34" length="66.74"/>
        <access friendlyPos="true" lane="24620443#0_0" pos="78.06" length="33.07"/>
        <access friendlyPos="true" lane="404190177#1_0" pos="0.00" length="30.48"/>
        <access friendlyPos="true" lane="40521208#1_0" pos="0.00" length="42.09"/>
        <access friendlyPos="true" lane="431557293#2_0" pos="55.12" length="1.66"/>
    </busStop>
    <busStop id="164152502#18.36:19.43" lane="164152502#18.36_0" startPos="6.43" endPos="19.43" friendlyPos="true" name="Werderstraße">
        <access friendlyPos="true" lane="-230602997#0_0" pos="0.00" length="44.20"/>
        <access friendlyPos="true" lane="-230602997#1_0" pos="3.27" length="14.32"/>
        <access friendlyPos="true" lane="-230602997#2_0" pos="36.85" length="23.87"/>
        <access friendlyPos="true" lane="-313209997#0_0" pos="60.11" length="54.27"/>
        <access friendlyPos="true" lane="190441943_0" pos="12.75" length="38.71"/>
        <access friendlyPos="true" lane="190441947_0" pos="17.80" length="9.95"/>
        <access friendlyPos="true" lane="230602997#0.14_0" pos="15.90" length="41.72"/>
        <access friendlyPos="true" lane="230602997#1_0" pos="19.34" length="1.55"/>
        <access friendlyPos="true" lane="230602997#2_0" pos="0.00" length="18.96"/>
        <access friendlyPos="true" lane="24470198_0" pos="0.00" length="59.06"/>
    </busStop>
    <busStop id="85270636#1:86.58" lane="85270636#1_1" startPos="73.58" endPos="86.58" friendlyPos="true" name="MA Hauptbahnhof"/>
    <busStop id="778989039#3:56.23" lane="778989039#3_0" startPos="43.23" endPos="56.23" friendlyPos="true" name="Universität">
        <access friendlyPos="true" lane="-35899348#0_0" pos="6.87" length="24.12"/>
        <access friendlyPos="true" lane="-35899348#1_0" pos="22.83" length="30.65"/>
        <access friendlyPos="true" lane="-97301278#2_0" pos="59.11" length="3.80"/>
        <access friendlyPos="true" lane="156279645#1_0" pos="11.73" length="66.08"/>
        <access friendlyPos="true" lane="191128491_0" pos="56.41" length="19.33"/>
        <access friendlyPos="true" lane="202442342_0" pos="0.00" length="32.01"/>
        <access friendlyPos="true" lane="25873469#9_0" pos="7.15" length="68.35"/>
        <access friendlyPos="true" lane="35899348#1_0" pos="0.00" length="27.60"/>
        <access friendlyPos="true" lane="97301278#2_0" pos="55.57" length="0.81"/>
        <access friendlyPos="true" lane="97301283#1_0" pos="59.41" length="54.45"/>
    </busStop>
    <busStop id="97301292#1:13.00" lane="97301292#1_1" startPos="0.00" endPos="13.00" friendlyPos="true" name="Paradeplatz"/>
    <busStop id="4404113#3:13.11" lane="4404113#3_2" startPos="0.11" endPos="13.11" friendlyPos="true" name="MA Marktplatz"/>
    <busStop id="376865390#1:13.00" lane="376865390#1_2" startPos="0.00" endPos="13.00" friendlyPos="true" name="Abendakademie"/>
    <busStop id="236995001:32.38" lane="236995001_2" startPos="19.38" endPos="32.38" friendlyPos="true" name="Gewerkschaftshaus"/>
    <busStop id="880134845:31.33" lane="880134845_2" startPos="18.33" endPos="31.33" friendlyPos="true" name="Nationaltheater"/>
    <busStop id="323709010:23.54" lane="323709010_0" startPos="10.54" endPos="23.54" friendlyPos="true" name="Theresienkrankenhaus">
        <access friendlyPos="true" lane="-24909174#11_0" pos="38.36" length="79.09"/>
        <access friendlyPos="true" lane="-24909174#7_0" pos="18.68" length="7.46"/>
        <access friendlyPos="true" lane="134394988#0_0" pos="0.00" length="60.24"/>
        <access friendlyPos="true" lane="150694608#2_0" pos="50.04" length="39.40"/>
        <access friendlyPos="true" lane="150694608#3_0" pos="0.20" length="38.60"/>
        <access friendlyPos="true" lane="169684595#0_0" pos="0.00" length="42.96"/>
        <access friendlyPos="true" lane="169689583#0_0" pos="1.24" length="75.79"/>
        <access friendlyPos="true" lane="24909174#11_0" pos="0.00" length="79.27"/>
        <access friendlyPos="true" lane="24909174#7_0" pos="136.75" length="10.46"/>
        <access friendlyPos="true" lane="791679272_0" pos="18.57" length="42.94"/>
    </busStop>
    <busStop id="-150554195#1:54.86" lane="-150554195#1_1" startPos="41.86" endPos="54.86" friendlyPos="true" name="Paradeplatz"/>
    <busStop id="251065565:13.00" lane="251065565_0" startPos="0.00" endPos="13.00" friendlyPos="true" name="Theresienkrankenhaus">
        <access friendlyPos="true" lane="100442337#2_0" pos="8.75" length="16.25"/>
        <access friendlyPos="true" lane="100442337#3_0" pos="3.15" length="11.08"/>
        <access friendlyPos="true" lane="100442337#4_0" pos="0.00" length="16.52"/>
        <access friendlyPos="true" lane="169690680_0" pos="1.92" length="17.80"/>
        <access friendlyPos="true" lane="237027411_0" pos="2.33" length="17.08"/>
        <access friendlyPos="true" lane="237027412_0" pos="0.20" length="27.44"/>
        <access friendlyPos="true" lane="237027675_0" pos="1.04" length="20.52"/>
        <access friendlyPos="true" lane="237027676_0" pos="0.00" length="27.01"/>
        <access friendlyPos="true" lane="778525711_0" pos="26.12" length="22.32"/>
        <access friendlyPos="true" lane="79721396#0_0" pos="27.92" length="18.04"/>
    </busStop>
    <busStop id="268931665:13.00" lane="268931665_1" startPos="0.00" endPos="13.00" friendlyPos="true" name="Nationaltheater"/>
    <busStop id="53175058:34.45" lane="53175058_1" startPos="21.45" endPos="34.45" friendlyPos="true" name="Wasserturm">
        <access friendlyPos="true" lane="149898018#2_0" pos="8.98" length="38.66"/>
        <access friendlyPos="true" lane="149898018#3_0" pos="15.03" length="13.31"/>
        <access friendlyPos="true" lane="149898018#4_0" pos="0.00" length="11.36"/>
        <access friendlyPos="true" lane="149898018#5_0" pos="0.00" length="33.28"/>
        <access friendlyPos="true" lane="200714394#3_0" pos="42.09" length="31.32"/>
        <access friendlyPos="true" lane="351446541_0" pos="0.00" length="36.54"/>
        <access friendlyPos="true" lane="409050022_0" pos="4.08" length="41.05"/>
        <access friendlyPos="true" lane="409050025#1_0" pos="9.85" length="24.31"/>
        <access friendlyPos="true" lane="409050025#2_0" pos="0.00" length="24.97"/>
        <access friendlyPos="true" lane="409050027_0" pos="0.00" length="15.44"/>
    </busStop>
    <busStop id="189773010#0:21.56" lane="189773010#0_1" startPos="8.56" endPos="21.56" friendlyPos="true" name="Kunsthalle"/>
    <busStop id="280873259#15:13.00" lane="280873259#15_0" startPos="0.00" endPos="13.00" friendlyPos="true" name="MA Hauptbahnhof">
        <access friendlyPos="true" lane="-269029116#0_0" pos="7.57" length="16.18"/>
        <access friendlyPos="true" lane="-269029116#2_0" pos="9.88" length="29.66"/>
        <access friendlyPos="true" lane="1098919000#9_0" pos="61.44" length="22.80"/>
        <access friendlyPos="true" lane="1098919001#13_0" pos="0.00" length="1.09"/>
        <access friendlyPos="true" lane="139692077#10_0" pos="8.69" length="30.96"/>
        <access friendlyPos="true" lane="139692115#6_0" pos="10.62" length="28.81"/>
        <access friendlyPos="true" lane="174743991#2_0" pos="61.66" length="10.29"/>
        <access friendlyPos="true" lane="269029116#0_0" pos="0.00" length="8.66"/>
        <access friendlyPos="true" lane="269029116#2_0" pos="0.00" length="36.07"/>
        <access friendlyPos="true" lane="85619555_0" pos="0.00" length="36.86"/>
    </busStop>
    <busStop id="268931658:30.58" lane="268931658_1" startPos="17.58" endPos="30.58" friendlyPos="true" name="Rosengarten"/>
    <busStop id="35929667.403:13.00" lane="35929667.403_0" startPos="0.00" endPos="13.00" friendlyPos="true" name="MARCHIVUM">
        <access friendlyPos="true" lane="101261396#1_0" pos="166.18" length="145.84"/>
    </busStop>
    <busStop id="-999862407:13.00" lane="-999862407_1" startPos="0.00" endPos="13.00" friendlyPos="true" name="Popakademie"/>
    <busStop id="-320252634#8:13.00" lane="-320252634#8_1" startPos="0.00" endPos="13.00" friendlyPos="true" name="Teufelsbrücke"/>
    <busStop id="-265910769:13.00" lane="-265910769_1" startPos="0.00" endPos="13.00" friendlyPos="true" name="Akademiestraße"/>
    <busStop id="216879574#4:13.00" lane="216879574#4_1" startPos="0.00" endPos="13.00" friendlyPos="true" name="Universität West"/>
    <busStop id="165825311#1:17.47" lane="165825311#1_1" startPos="4.47" endPos="17.47" friendlyPos="true" name="Mensa am Schloss"/>
    <busStop id="189877634#0:49.85" lane="189877634#0_1" startPos="36.85" endPos="49.85" friendlyPos="true" name="MA Schloss">
        <access friendlyPos="true" lane="-181337926#1_0" pos="0.00" length="39.19"/>
        <access friendlyPos="true" lane="-36475788#1_0" pos="67.44" length="29.88"/>
        <access friendlyPos="true" lane="156547312_0" pos="1.81" length="47.35"/>
        <access friendlyPos="true" lane="162513804#1_0" pos="43.97" length="35.97"/>
        <access friendlyPos="true" lane="162513815#1_0" pos="49.93" length="7.60"/>
        <access friendlyPos="true" lane="181337926#1_0" pos="10.73" length="38.85"/>
        <access friendlyPos="true" lane="36475788#1_0" pos="12.92" length="32.89"/>
        <access friendlyPos="true" lane="548514764#2_0" pos="43.36" length="21.73"/>
        <access friendlyPos="true" lane="729989698#2_0" pos="44.61" length="37.40"/>
        <access friendlyPos="true" lane="729989698#3_0" pos="0.00" length="40.01"/>
    </busStop>
    <busStop id="315426061:20.05" lane="315426061_1" startPos="7.05" endPos="20.05" friendlyPos="true" name="Wasserturm">
        <access friendlyPos="true" lane="131849516#0_0" pos="13.74" length="51.82"/>
        <access friendlyPos="true" lane="149898018#10_0" pos="20.04" length="10.11"/>
        <access friendlyPos="true" lane="149898018#11_0" pos="0.00" length="59.53"/>
        <access friendlyPos="true" lane="190434422_0" pos="39.15" length="51.49"/>
        <access friendlyPos="true" lane="227991193#0_0" pos="0.00" length="60.43"/>
        <access friendlyPos="true" lane="227992740#3_0" pos="31.05" length="53.05"/>
        <access friendlyPos="true" lane="227992740#4_0" pos="0.00" length="58.34"/>
        <access friendlyPos="true" lane="27391708#0_0" pos="38.09" length="67.09"/>
        <access friendlyPos="true" lane="300077797_0" pos="35.91" length="72.52"/>
        <access friendlyPos="true" lane="409255885#1_0" pos="21.59" length="59.26"/>
    </busStop>
    <busStop id="253488957#0:68.06" lane="253488957#0_1" startPos="55.06" endPos="68.06" friendlyPos="true" name="Am Friedrichsplatz"/>
    <busStop id="53175165:13.00" lane="53175165_0" startPos="0.00" endPos="13.00" friendlyPos="true" name="Otto-Beck-Straße">
        <access friendlyPos="true" lane="108404025#0_0" pos="0.00" length="90.56"/>
        <access friendlyPos="true" lane="122500706#3_0" pos="0.20" length="42.67"/>
        <access friendlyPos="true" lane="122500706#4_0" pos="7.38" length="45.98"/>
        <access friendlyPos="true" lane="122500706#5_0" pos="10.40" length="20.16"/>
        <access friendlyPos="true" lane="253488954#0_0" pos="37.87" length="31.33"/>
        <access friendlyPos="true" lane="361834824#2_0" pos="89.00" length="30.18"/>
        <access friendlyPos="true" lane="361834826#1_0" pos="0.00" length="47.89"/>
        <access friendlyPos="true" lane="500261497_0" pos="72.39" length="79.05"/>
        <access friendlyPos="true" lane="53175163#1_0" pos="0.00" length="39.59"/>
        <access friendlyPos="true" lane="724854349#2_0" pos="0.20" length="59.57"/>
    </busStop>
    <busStop id="53175164#0:118.49" lane="53175164#0_0" startPos="105.49" endPos="118.49" friendlyPos="true" name="Maximilianstraße">
        <access friendlyPos="true" lane="-163773296#1_0" pos="8.40" length="3.69"/>
        <access friendlyPos="true" lane="-163773296#3_0" pos="229.64" length="35.73"/>
        <access friendlyPos="true" lane="-208426932#0_0" pos="111.52" length="29.18"/>
        <access friendlyPos="true" lane="-4492379#1_0" pos="0.00" length="54.96"/>
        <access friendlyPos="true" lane="163773296#0_0" pos="118.49" length="6.67"/>
        <access friendlyPos="true" lane="163773296#3_0" pos="0.00" length="36.09"/>
        <access friendlyPos="true" lane="24534170#1_0" pos="0.00" length="21.32"/>
        <access friendlyPos="true" lane="361834824#0_0" pos="8.41" length="43.25"/>
        <access friendlyPos="true" lane="361834828#2_0" pos="227.43" length="56.30"/>
        <access friendlyPos="true" lane="4492379#1_0" pos="71.25" length="51.23"/>
    </busStop>
    <busStop id="53175164#2:203.18" lane="53175164#2_0" startPos="190.18" endPos="203.18" friendlyPos="true" name="Lanzvilla">
        <access friendlyPos="true" lane="-163773296#3_0" pos="26.42" length="5.48"/>
        <access friendlyPos="true" lane="-185352101_0" pos="0.00" length="60.46"/>
        <access friendlyPos="true" lane="-43904684_0" pos="0.00" length="76.83"/>
        <access friendlyPos="true" lane="163773296#3_0" pos="203.22" length="8.48"/>
        <access friendlyPos="true" lane="185352101_0" pos="46.63" length="68.89"/>
        <access friendlyPos="true" lane="185576694#0_0" pos="0.00" length="43.12"/>
        <access friendlyPos="true" lane="188286749#1_0" pos="73.49" length="61.15"/>
        <access friendlyPos="true" lane="361834828#1_0" pos="7.02" length="61.08"/>