<?xml version="1.0" encoding="UTF-8"?>

<!-- generated on 2023-05-22 11:39:17.103564 by ptlines2flows.py v1_16_0+1491-7f1fb8fd7bb
  options: -n /Users/jenniferhahn/Library/CloudStorage/OneDrive-UniversitätMannheim/01_Master_Thesis/urban_mobility_simulation/models/20230502_SUMO_MA/osm.net.xml -s /Users/jenniferhahn/Library/CloudStorage/OneDrive-UniversitätMannheim/01_Master_Thesis/urban_mobility_simulation/models/20230502_SUMO_MA/pt/stops.add.xml -l /Users/jenniferhahn/Library/CloudStorage/OneDrive-UniversitätMannheim/01_Master_Thesis/urban_mobility_simulation/models/20230502_SUMO_MA/pt/ptlines_stops.xml -o /Users/jenniferhahn/Library/CloudStorage/OneDrive-UniversitätMannheim/01_Master_Thesis/urban_mobility_simulation/models/20230502_SUMO_MA/pt/test_flow.rou.xml
-->

<routes xmlns:xsi="http://www.w3.org/2001/XMLSchema-instance" xsi:noNamespaceSchemaLocation="http://sumo.dlr.de/xsd/routes_file.xsd">
    <vType id="bus" vClass="bus"/>
    <vType id="tram" vClass="tram"/>
    <vType id="train" vClass="rail"/>
    <vType id="subway" vClass="rail_urban"/>
    <vType id="light_rail" vClass="rail_urban"/>
    <vType id="monorail" vClass="rail_urban"/>
    <vType id="trolleybus" vClass="bus"/>
    <vType id="minibus" vClass="bus"/>
    <vType id="share_taxi" vClass="taxi"/>
    <vType id="aerialway" vClass="rail_urban" length="2.5" width="2" personCapacity="4"/>
    <vType id="ferry" vClass="ship"/>
    <route id="bus_710:0" edges="191128493#1 195406205#1 14104725#0 14104725#1 14104725#2 -898416657#1 -898416657#0 -385970249#1 269040916 190446522 190446521#2 190443686 190443685 189768761 189768759 150853632 189765883#0 127607593 192428990 281645790#0 188943835" >
        <stop busStop="9252496160" duration="20" until="55.0"/> <!-- Mannheim Hauptbahnhof departure -->
        <stop busStop="-1758133056" duration="20" until="358.0"/> <!-- Hochschule -->
    </route>
    <route id="bus_710:1" edges="240348398#1 25890468 25890467 199383409#2 251816560#0 35951977#1 127608718#0 127608718#1 251816580 189765373 189765377 53175063#0 150851811#2 898486015 898486014#0 898486014#1 190443688#0 898480456 898465326#0 190443836 898484255 898484254 898459770 189769943#0 269040917#0 17977155#0 17977155#1 191128493#0 191128493#1" >
        <stop busStop="1758133056" duration="20" until="43.0"/> <!-- Hochschule -->
        <stop busStop="9252496161" duration="20" until="445.0"/> <!-- Mannheim Hauptbahnhof arrival -->
    </route>
    <route id="tram_5A:0" edges="947141672#3 280873259#0 228769592 250479676#0 225907711 131849523 25890121#2 25890121#3 131849519 1090827387 906995408#1 4403842#3 25621926#1 162791132#3 162791132#4 1081235153#0 189075367#3 189075367#4 267411650#0 267411650#2 189068691#1 52362434#0 52362434#3 150694606#0 150694606#1 150694606#3 150694606#4" >
        <stop busStop="2523282301" duration="20" until="37.0"/> <!-- MA hauptbahnhof A -->
        <stop busStop="7314575181" duration="20" until="217.0"/> <!-- Kunsthalle -->
        <stop busStop="26936899" duration="20" until="328.0"/> <!-- Rosengarten -->
        <stop busStop="271084469" duration="20" until="409.0"/> <!-- Nationaltheater -->
        <stop busStop="258933791" duration="20" until="521.0"/> <!-- Theresienkrankenhaus -->
    </route>
    <route id="tram_5:0" color="0,150,94" edges="947141672#3 280873259#0 228769592 250479676#0 225907711 131849523 25890121#2 25890121#3 131849519 1090827387 906995408#1 4403842#3 25621926#1 162791132#3 162791132#4 1081235153#0 189075367#3 189075367#4 267411650#0 267411650#2 189068691#1 52362434#0 52362434#3 150694606#0 150694606#1 150694606#3 150694606#4" >
        <stop busStop="2523282301" duration="20" until="37.0"/> <!-- MA hauptbahnhof A -->
        <stop busStop="7314575181" duration="20" until="247.0"/> <!-- Kunsthalle -->
        <stop busStop="26936899" duration="20" until="404.0"/> <!-- Rosengarten -->
        <stop busStop="271084469" duration="20" until="522.0"/> <!-- Nationaltheater -->
        <stop busStop="258933791" duration="20" until="634.0"/> <!-- Theresienkrankenhaus -->
    </route>
    <route id="tram_9:1" color="147,193,59" edges="309858481#12 309858481#13 309858481#15 309858481#17 309858481#25 189064925#0 189064925#2 164152502#4 164152502#6 164152502#7 164152502#8 164152502#9 164152502#10 164152502#11 164152502#12 164152502#13 164152502#14 164152502#14.95 164152502#15 164152502#16 164152502#17 164152502#18 164152502#18.7 164152502#18.36 164152502#18.67 164152502#18.110 164152502#19 164152502#20 906995404#3 189063868 25890119#1 906995406 1098222377#5" >
        <stop busStop="1757095082" duration="20" until="43.0"/> <!-- Luisenpark/Technoseum -->
        <stop busStop="169586417" duration="20" until="150.0"/> <!-- Planetarium -->
        <stop busStop="1772602056" duration="20" until="207.0"/> <!-- Weberstraße -->
        <stop busStop="1772602021" duration="20" until="313.0"/> <!-- Pestalozzischule -->
        <stop busStop="1772602060" duration="20" until="494.0"/> <!-- Werderstraße -->
        <stop busStop="1450516865" duration="20" until="576.0"/> <!-- Tattersall D -->
        <stop busStop="10062492097" duration="20" until="812.0"/> <!-- MA hauptbahnhof C -->
    </route>
    <route id="tram_5:1" color="0,150,93" edges="249295637.159 52362362#1 52362362#3 52362362#4 52362362#5 52362362#8 52362342 52362293#5 174743990#0 174743990#2 174743990#3 1081235152#4 189075407#0 189075407#1 131849516#2 906995409#0 906995409#3 131849529#0 906995406 85270636#1" >
        <stop busStop="1757015662" duration="20" until="118.0"/> <!-- Theresienkrankenhaus -->
        <stop busStop="7315072987" duration="20" until="319.0"/> <!-- Nationaltheater -->
        <stop busStop="1316106863" duration="20" until="428.0"/> <!-- Rosengarten -->
        <stop busStop="244371429" duration="20" until="667.0"/> <!-- Kunsthalle -->
        <stop busStop="1410606896" duration="20" until="798.0"/> <!-- MA hauptbahnhof D -->
    </route>
    <route id="tram_2:0" edges="189075375#3 189075375#4 189075375#7 189075375#8 164862086#1 267411647 739649181 163972805 189075356#0 189075356#1 189075356#2 189075356#3 189075356#4 -150554195#3 -150554195#2 -150554195#1 189075356#8 189075356#8.17 249295641#1 249295641#3 -En16 -En15 -En14 En2 En3 En4 En5 En6 En7 En8 En9 En10 En11 162791132#0 162791132#3 162791132#4 1081235153#0 189075367#3 189075367#4 267411650#0 267411650#2 189068691#1 258979195#0 52362434#3 150694606#0 150694606#1 150694606#3 150694606#4" >
        <stop busStop="175391568" duration="20" until="42.0"/> <!-- Kurpfalzbrücke -->
        <stop busStop="1756265447" duration="20" until="123.0"/> <!-- MVV-Hochhaus -->
        <stop busStop="1756265409" duration="20" until="185.0"/> <!-- Dalbergstraße -->
        <stop busStop="7314733474" duration="20" until="250.0"/> <!-- Rheinstraße -->
        <stop busStop="7304372583" duration="20" until="341.0"/> <!-- Rathaus/REM -->
        <stop busStop="2559199763" duration="20" until="412.0"/> <!-- Paradeplatz -->
        <stop busStop="7304372578" duration="20" until="486.0"/> <!-- Strohmarkt -->
        <stop busStop="25422078" duration="20" until="561.0"/> <!-- Wasserturm -->
        <stop busStop="26936899" duration="20" until="682.0"/> <!-- Rosengarten -->
        <stop busStop="7315072986" duration="20" until="760.0"/> <!-- Nationaltheater -->
        <stop busStop="258933791" duration="20" until="916.0"/> <!-- Theresienkrankenhaus -->
    </route>
    <route id="tram_9:0" color="147,193,59" edges="947141672#3 280873259#0 228769592 250479676#0 225907711 131849523 255282616#3 131849522#0 165720115#0 165720115#1 165720115#4 165720108#0 165720108#0.30 165720108#0.94 165720108#0.131 165720108#0.163 165720108#0.179 165720108#2 165720108#2.22 165720108#3 165720108#4 165720108#5 165720108#6 165720108#7 165720108#8 165720108#9 165720108#10 25890866#1 25890866#7 25890866#9 164047628#3 164047628#11 164047628#13 164047628#15 164048740#0 164048740#1" >
        <stop busStop="2523282301" duration="20" until="34.0"/> <!-- MA hauptbahnhof A -->
        <stop busStop="282811321" duration="20" until="304.0"/> <!-- Tattersall E -->
        <stop busStop="1772602539" duration="20" until="415.0"/> <!-- Werderstraße -->
        <stop busStop="7314635837" duration="20" until="483.0"/> <!-- Pestalozzischule -->
        <stop busStop="7314635844" duration="20" until="614.0"/> <!-- Weberstraße -->
        <stop busStop="7314635830" duration="20" until="734.0"/> <!-- Planetarium -->
        <stop busStop="7314635829" duration="20" until="856.0"/> <!-- Luisenpark/Technoseum -->
    </route>
    <route id="tram_4:0" color="227,0,11" edges="174845336#0 E3_n5 E4_n5 E6_n5 E11_n5 E12_n5 163972096#1 -En16 -En15 -En14 En2 En3 En4 En5 En6 En7 En8 En9 En10 En11 131849516#0 131849516#2 906995409#0 906995409#3 131849529#0 906995406 1098222377#5 999663994#14 249143137 280873263#1 280873255 778989039#0 778989039#1 163976639#3 163976639#4 906995420 164043801" >
        <stop busStop="1756265281" duration="20" until="53.0"/> <!-- Abendakademie -->
        <stop busStop="248787903" duration="20" until="132.0"/> <!-- Marktplatz -->
        <stop busStop="2559199763" duration="20" until="204.0"/> <!-- Paradeplatz -->
        <stop busStop="7304372578" duration="20" until="278.0"/> <!-- Strohmarkt -->
        <stop busStop="25422078" duration="20" until="353.0"/> <!-- Wasserturm -->
        <stop busStop="244371429" duration="20" until="462.0"/> <!-- Kunsthalle -->
        <stop busStop="10062492097" duration="20" until="694.0"/> <!-- MA hauptbahnhof C -->
        <stop busStop="268941327" duration="20" until="865.0"/> <!-- Universität -->
        <stop busStop="2575674925" duration="20" until="949.0"/> <!-- Konrad-Adenauer-Brücke -->
    </route>
    <route id="tram_2:1" edges="249295637.159 52362362#1 52362362#3 52362362#4 52362362#5 52362362#8 52362342 52362293#5 174743990#0 174743990#2 174743990#3 22763389#5 22763389#7 -En11 -En10 -En9 -En8 -En7 -En6 -En5 -En4 -En3 -En2 En14 En15 En16 51328089#1 51328089#3 249295642#0 -189075356#8 150554195#0 150554195#2 150554195#3 249295642#4 249295642#5 249295642#6 249295642#7 249295642#8 164862085#0 164862085#1 164862085#2 739649180 27429643#1 267411662 25883964#1 25883964#4 25883964#5" >
        <stop busStop="1757015662" duration="20" until="86.0"/> <!-- Theresienkrankenhaus -->
        <stop busStop="7315072987" duration="20" until="253.0"/> <!-- Nationaltheater -->
        <stop busStop="1316106863" duration="20" until="396.0"/> <!-- Rosengarten -->
        <stop busStop="7306708512" duration="20" until="476.0"/> <!-- Wasserturm -->
        <stop busStop="7304372577" duration="20" until="551.0"/> <!-- Strohmarkt -->
        <stop busStop="248787902" duration="20" until="625.0"/> <!-- Paradeplatz -->
        <stop busStop="2390911963" duration="20" until="697.0"/> <!-- Rathaus/REM -->
        <stop busStop="175391606" duration="20" until="782.0"/> <!-- Rheinstraße -->
        <stop busStop="175391593" duration="20" until="850.0"/> <!-- Dalbergstraße -->
        <stop busStop="2642795905" duration="20" until="916.0"/> <!-- MVV-Hochhaus -->
        <stop busStop="1756265413" duration="20" until="973.0"/> <!-- Kurpfalzbrücke -->
    </route>
    <route id="tram_5A:1" edges="249295637.159 52362362#1 52362362#3 52362362#4 52362362#5 52362362#8 52362342 52362293#5 174743990#0 174743990#2 174743990#3 1081235152#4 189075407#0 189075407#1 131849516#2 906995409#0 906995409#3 131849529#0 906995406 85270636#1" >
        <stop busStop="1757015662" duration="20" until="150.0"/> <!-- Theresienkrankenhaus -->
        <stop busStop="7315072987" duration="20" until="351.0"/> <!-- Nationaltheater -->
        <stop busStop="1316106863" duration="20" until="468.0"/> <!-- Rosengarten -->
        <stop busStop="244371429" duration="20" until="849.0"/> <!-- Kunsthalle -->
        <stop busStop="1410606896" duration="20" until="992.0"/> <!-- MA hauptbahnhof D -->
    </route>
    <route id="tram_4:1" color="227,0,11" edges="164043806#1 164043805 24943924 26407781#0 -778989039#1 -778989039#0 -280873255 -280873263#1 -249143137 174743991#2 228769592 250479676#0 225907711 131849523 25890121#2 25890121#3 131849519 906995407#0 906995407#1 4403842#3 25621926#1 25621926#4 -En11 -En10 -En9 -En8 -En7 -En6 -En5 -En4 -En3 -En2 En14 En15 En16 150554187 E13_n5 -E11_n5 -E6_n5 -E4_n5 -E3_n5 E8_n5" >
        <stop busStop="2575674942" duration="20" until="37.0"/> <!-- Konrad-Adenauer-Brücke -->
        <stop busStop="266980751" duration="20" until="136.0"/> <!-- Universität -->
        <stop busStop="280441885" duration="20" until="268.0"/> <!-- MA Hauptbahnhof B -->
        <stop busStop="7306708513" duration="20" until="561.0"/> <!-- Kunsthalle -->
        <stop busStop="7306708512" duration="20" until="684.0"/> <!-- Wasserturm -->
        <stop busStop="7304372577" duration="20" until="759.0"/> <!-- Strohmarkt -->
        <stop busStop="248787902" duration="20" until="833.0"/> <!-- Paradeplatz -->
        <stop busStop="7306708511" duration="20" until="912.0"/> <!-- Marktplatz -->
        <stop busStop="7306708509" duration="20" until="988.0"/> <!-- Abendakademie -->
    </route>
    <route id="tram_7:1" edges="164043806#1 164043805 24943924 24746618#0 24746618#1 778989039#3 189068695#4 906995422#4 384843844#1 384843844#2 278441979 104229437#0 104229437#2 E13_n5 -E11_n5 -E6_n5 -E4_n5 -E3_n5 E8_n5 163970105#0 163970105#1 229239387#0 229239387#3 52362326#0 52362326#1 229239389#1 267411657#0 267411657#1 189068691#1 258979195#0 52362434#3 150694606#0 150694606#1 150694606#3 150694606#4" >
        <stop busStop="2575674942" duration="20" until="37.0"/> <!-- Konrad-Adenauer-Brücke -->
        <stop busStop="705049671" duration="20" until="130.0"/> <!-- Universität -->
        <stop busStop="7315096513" duration="20" until="515.0"/> <!-- Schloss -->
        <stop busStop="8764658150" duration="20" until="602.0"/> <!-- Paradeplatz -->
        <stop busStop="7306708511" duration="20" until="685.0"/> <!-- Marktplatz -->
        <stop busStop="7306708509" duration="20" until="761.0"/> <!-- Abendakademie -->
        <stop busStop="2452045803" duration="20" until="952.0"/> <!-- Gewerkschaftshaus -->
        <stop busStop="7315072986" duration="20" until="1021.0"/> <!-- Nationaltheater -->
        <stop busStop="258933791" duration="20" until="1153.0"/> <!-- Theresienkrankenhaus -->
    </route>
    <route id="tram_3:0" edges="174845336#0 E3_n5 E4_n5 E6_n5 E11_n5 E12_n5 163972096#1 -En16 -En15 -En14 En2 En3 En4 En5 En6 En7 En8 En9 En10 En11 131849516#0 131849516#2 906995409#0 906995409#3 131849529#0 906995406 1098222377#5 999663994#14 249143137 174743997#2 251327578#1 163976015 214788248 164041674#0 164041674#1 164041674#2 164041674#3 164041674#4 214788243 214788245#0 214788245#2 116638550#0 E3_y9 116638550#3 164087134#0 164087134#2 309639748#1 309639748#2 906998364#1 906998364#2 906998364#3 906998364#5 906998364#6 906998364#7 906998364#8 906998364#9" >
        <stop busStop="1756265281" duration="20" until="85.0"/> <!-- Abendakademie -->
        <stop busStop="248787903" duration="20" until="164.0"/> <!-- Marktplatz -->
        <stop busStop="2559199763" duration="20" until="248.0"/> <!-- Paradeplatz -->
        <stop busStop="7304372578" duration="20" until="322.0"/> <!-- Strohmarkt -->
        <stop busStop="25422078" duration="20" until="397.0"/> <!-- Wasserturm -->
        <stop busStop="244371429" duration="20" until="528.0"/> <!-- Kunsthalle -->
        <stop busStop="10062492097" duration="20" until="726.0"/> <!-- MA hauptbahnhof C -->
        <stop busStop="293781517" duration="20" until="943.0"/> <!-- MA Hauptbahnhof Süd -->
        <stop busStop="1757454913" duration="20" until="1025.0"/> <!-- Windeckstraße -->
        <stop busStop="180559029" duration="20" until="1087.0"/> <!-- Diesterwegschule -->
        <stop busStop="7306708516" duration="20" until="1221.0"/> <!-- Meeräckerplatz -->
        <stop busStop="293781513" duration="20" until="1295.0"/> <!-- Markuskirche -->
    </route>
    <route id="tram_5:3" color="0,150,93" edges="E3_y10 E1_y10 E0_y10 195651740#0 195651740#0.117 195651740#1 195651740#2 229239388#0 229239388#1 229239388#2 229239388#3 174743987#0 174743987#3 25621958#2 25621958#3 174845336#0 E3_n5 E4_n5 E6_n5 E11_n5 E12_n5 163972096#1 -En16 -En15 -En14 En2 En3 En4 En5 En6 En7 En8 En9 En10 En11 131849516#0 131849516#2 906995409#0 906995409#3 131849529#0 255282616#3 131849522#0 164049212 -150770615#1 150770615#1 906995411#2 225907712#1 189063868 25890120#0 25890120#2 131849519 1090827387 906995408#1" >
        <stop busStop="bs_Fernmeldeturm1" duration="20" until="125.0"/> <!-- Fernmeldturm -->
        <stop busStop="bs_Lessingstra1" duration="20" until="208.0"/> <!-- Lessingstraße -->
        <stop busStop="3469625196" duration="20" until="300.0"/> <!-- Collini Center -->
        <stop busStop="1756265281" duration="20" until="558.0"/> <!-- Abendakademie -->
        <stop busStop="248787903" duration="20" until="637.0"/> <!-- Marktplatz -->
        <stop busStop="2559199763" duration="20" until="709.0"/> <!-- Paradeplatz -->
        <stop busStop="7304372578" duration="20" until="783.0"/> <!-- Strohmarkt -->
        <stop busStop="25422078" duration="20" until="858.0"/> <!-- Wasserturm -->
        <stop busStop="7314575181" duration="20" until="1330.0"/> <!-- Kunsthalle -->
    </route>
    <route id="tram_3:1" color="213,173,0" edges="E8_P7 225775905#12 225775905#14 225775905#15 906998365#1 906998365#2 906998365#3 906998365#4 906998365#7 906998365#8 906998365#9 165545298#1 165545297#1 165545297#3 309639745#0 E4_ry9 309639745#3 116638555#2 116638555#3 116638555#4 116638555#5 116638555#6 24943857 -249143137 174743991#2 228769592 250479676#0 225907711 131849523 25890121#2 25890121#3 131849519 906995407#0 906995407#1 4403842#3 25621926#1 25621926#4 -En11 -En10 -En9 -En8 -En7 -En6 -En5 -En4 -En3 -En2 En14 En15 En16 150554187 E13_n5 -E11_n5 -E6_n5 -E4_n5 -E3_n5 E8_n5" >
        <stop busStop="bs_4" duration="20" until="34.0"/> <!-- Markuskirche -->
        <stop busStop="282275782" duration="20" until="120.0"/> <!-- Meeräckerplatz -->
        <stop busStop="1757455624" duration="20" until="229.0"/> <!-- Diesterwegschule -->
        <stop busStop="1757455642" duration="20" until="294.0"/> <!-- Windeckstraße -->
        <stop busStop="7306708514" duration="20" until="426.0"/> <!-- MA Hauptbahnhof Süd -->
        <stop busStop="280441885" duration="20" until="578.0"/> <!-- MA Hauptbahnhof B -->
        <stop busStop="7306708513" duration="20" until="859.0"/> <!-- Kunsthalle -->
        <stop busStop="7306708512" duration="20" until="1025.0"/> <!-- Wasserturm -->
        <stop busStop="7304372577" duration="20" until="1100.0"/> <!-- Strohmarkt -->
        <stop busStop="248787902" duration="20" until="1174.0"/> <!-- Paradeplatz -->
        <stop busStop="7306708511" duration="20" until="1253.0"/> <!-- Marktplatz -->
        <stop busStop="7306708509" duration="20" until="1329.0"/> <!-- Abendakademie -->
    </route>
    <route id="tram_6A:0" edges="27529606#1 740014432#1 163972097#0 163972097#1 163972097#2 189075356#0 189075356#1 189075356#2 189075356#3 189075356#4 -150554195#3 -150554195#2 -150554195#1 189075356#8 189075356#8.17 249295641#1 249295641#3 -En16 -En15 -En14 En2 En3 En4 En5 En6 En7 En8 En9 En10 En11 131849516#0 131849516#2 906995409#0 906995409#3 131849529#0 255282616#3 131849522#0 165720115#0 165720115#1 165720115#4 165720108#0 165720108#0.30 165720108#0.94 165720108#0.131 165720108#0.163 165720108#0.179 165720108#2 165720108#2.22 165720108#3 165720108#4 165720108#5 165720108#6 165720108#7 165720108#8 165720108#9 165720108#10 25890866#1 25890866#7 25890866#9 8030817#5 8030817#6 8030817#7 8030817#10 8030817#11 8030817#12 8030817#13 8030817#14 8030817#15 8030817#17 8030817#19" >
        <stop busStop="7314733473" duration="20" until="49.0"/> <!-- Handelshafen -->
        <stop busStop="7314733475" duration="20" until="111.0"/> <!-- Rheinstraße -->
        <stop busStop="7304372583" duration="20" until="187.0"/> <!-- Rathaus/REM -->
        <stop busStop="2559199763" duration="20" until="294.0"/> <!-- Paradeplatz -->
        <stop busStop="7304372578" duration="20" until="368.0"/> <!-- Strohmarkt -->
        <stop busStop="25422078" duration="20" until="443.0"/> <!-- Wasserturm -->
        <stop busStop="244371429" duration="20" until="611.0"/> <!-- Kunsthalle -->
        <stop busStop="282811321" duration="20" until="783.0"/> <!-- Tattersall E -->
        <stop busStop="1772602539" duration="20" until="944.0"/> <!-- Werderstraße -->
        <stop busStop="7314635837" duration="20" until="1012.0"/> <!-- Pestalozzischule -->
        <stop busStop="7314635844" duration="20" until="1081.0"/> <!-- Weberstraße -->
        <stop busStop="7314635830" duration="20" until="1187.0"/> <!-- Planetarium -->
        <stop busStop="7314733466" duration="20" until="1254.0"/> <!-- Technoseum Süd -->
        <stop busStop="1649132347" duration="20" until="1366.0"/> <!-- Fahrlach -->
    </route>
    <route id="tram_1:1" edges="174845336#0 E3_n5 E4_n5 E6_n5 E11_n5 E12_n5 174845354#0 174845354#2 249295627 278441980#1 278441980#2 278441980#3 906995424#1 96747818#0 96747818#1 96747818#2 96747818#3 -778989039#3 -778989039#2 -778989039#1 -778989039#0 -280873255 -280873263#1 -249143137 947141672#3 280873259#0 228769592 250479676#0 225907711 131849523 255282616#3 131849522#0 164049212 -150770615#1 -150770615#0 150851814#0 150851814#1 150851814#2 150851814#3 150851814#4 150851814#5 366073485#1 240348395#0 240348395#1 240348395#2 240348395#3 240348395#4 240348395#5 240348395#6 240348395#7 225907698#1 225907698#4 225907698#5 225907698#6 189030937 164152421" >
        <stop busStop="1756265281" duration="20" until="117.0"/> <!-- Abendakademie -->
        <stop busStop="248787903" duration="20" until="196.0"/> <!-- Marktplatz -->
        <stop busStop="248787901" duration="20" until="266.0"/> <!-- Paradeplatz -->
        <stop busStop="269015002" duration="20" until="381.0"/> <!-- Schloss -->
        <stop busStop="266980751" duration="20" until="842.0"/> <!-- Universität -->
        <stop busStop="2523282301" duration="20" until="936.0"/> <!-- MA hauptbahnhof A -->
        <stop busStop="282811321" duration="20" until="1143.0"/> <!-- Tattersall E -->
        <stop busStop="303549810" duration="20" until="1234.0"/> <!-- Kopernikusstraße -->
        <stop busStop="1772602008" duration="20" until="1315.0"/> <!-- Krappmühlstraße -->
        <stop busStop="7297758574" duration="20" until="1410.0"/> <!-- Hochschule -->
    </route>
    <route id="bus_60:1" edges="999857917#1 253540569#1 315426060#0 315426060#2 315426060#3 779043553#0 779043553#1 779043553#2 779043553#3 188462687#0 8067185#1 8067185#3 8067185#4 8067185#5 53175161 185576374#0 53175163#1 253488943 253488947 253488948 253488950#0 93785434 112562464 46967473 502060953#0 502060953#1 420551407#0 182065983#1 53175058 315426061 315426062 150000852 189773010#0 149996793 85270636#1 999663994#14 249143137 280873263#1 280873255 778989039#0 778989039#1 778989039#2 778989039#3 781419324 404599852 404599853 251157594 548514764#2 548514763#0 189876499 160173625 360785921#0 360785921#1 5111851 360785920#0 190340308 E2_vu3 E3_vu3 E4_vu3 399741671 190340312 216879571 674280493 102774826 102749569 359947001 187057793#0 190340309 320252264 265910769 320252634#0 320252634#1 320252634#2 320252634#3 320252634#5 320252634#7 320252634#9 320252634#10 320252634#11 320252634#12 402016777#1 150549242#0 150549242#1 190340310#0 190340310#1 371306931 182489958 930192517#0 930192517#1 -182489863 -229917857#1 229917854 -56185657#2 -56185657#0" >
        <stop busStop="9229706360" duration="20" until="37.0"/> <!-- Fernmeldeturm -->
        <stop busStop="534696602" duration="20" until="145.0"/> <!-- Lanzvilla -->
        <stop busStop="1104051745" duration="20" until="218.0"/> <!-- Maximilianstraße -->
        <stop busStop="2144083555" duration="20" until="270.0"/> <!-- Otto-Beck-Straße -->
        <stop busStop="244371625" duration="20" until="374.0"/> <!-- Am Friedrichsplatz -->
        <stop busStop="705047162" duration="20" until="483.0"/> <!-- Wasserturm -->
        <stop busStop="2144083544" duration="20" until="577.0"/> <!-- Kunsthalle A -->
        <stop busStop="1410606896" duration="20" until="655.0"/> <!-- MA hauptbahnhof D -->
        <stop busStop="8751953383" duration="20" until="855.0"/> <!-- Universität -->
        <stop busStop="1109517506" duration="20" until="985.0"/> <!-- Schloss -->
        <stop busStop="1109517483" duration="20" until="1073.0"/> <!-- Universität West -->
        <stop busStop="418507397" duration="20" until="1212.0"/> <!-- Akademiestraße -->
        <stop busStop="877901017" duration="20" until="1269.0"/> <!-- Teufelsbrücke -->
        <stop busStop="9229693855" duration="20" until="1350.0"/> <!-- Popakademie -->
        <stop busStop="-2144083516" duration="20" until="1427.0"/> <!-- Am Salzkai -->
    </route>
    <route id="tram_7:0" color="255,204,0" edges="249295637.159 52362362#1 52362362#3 52362362#4 52362362#5 52362362#8 150663772 162791143#3 162791133#0 162791133#1 162791133#3 162791133#4 162791141#1 162791141#2 162791141#3 174743987#0 174743987#3 25621958#2 25621958#3 174845336#0 E3_n5 E4_n5 E6_n5 E11_n5 E12_n5 174845354#0 174845354#2 249295627 278441980#1 278441980#2 278441980#3 906995424#1 96747818#0 96747818#1 96747818#2 96747818#3 -778989039#3 163976638 906995420 164043801" >
        <stop busStop="1757015662" duration="20" until="54.0"/> <!-- Theresienkrankenhaus -->
        <stop busStop="7315072988" duration="20" until="258.0"/> <!-- Nationaltheater -->
        <stop busStop="2434533614" duration="20" until="410.0"/> <!-- Gewerkschaftshaus -->
        <stop busStop="1756265281" duration="20" until="648.0"/> <!-- Abendakademie -->
        <stop busStop="248787903" duration="20" until="727.0"/> <!-- Marktplatz -->
        <stop busStop="248787901" duration="20" until="797.0"/> <!-- Paradeplatz -->
        <stop busStop="269015002" duration="20" until="915.0"/> <!-- Schloss -->
        <stop busStop="268941327" duration="20" until="1371.0"/> <!-- Universität -->
        <stop busStop="2575674925" duration="20" until="1455.0"/> <!-- Konrad-Adenauer-Brücke -->
    </route>
    <route id="tram_6A:1" edges="171178249#2 171178249#4 171178249#6 171178249#7 171178249#8 171178249#9 171178249#10 171178249#11 171178249#14 171178249#15 171178249#16 189064925#0 189064925#2 164152502#4 164152502#6 164152502#7 164152502#8 164152502#9 164152502#10 164152502#11 164152502#12 164152502#13 164152502#14 164152502#14.95 164152502#15 164152502#16 164152502#17 164152502#18 164152502#18.7 164152502#18.36 164152502#18.67 164152502#18.110 164152502#19 164152502#20 906995404#3 189063868 25890120#0 25890120#2 131849519 906995407#0 906995407#1 4403842#3 25621926#1 25621926#4 -En11 -En10 -En9 -En8 -En7 -En6 -En5 -En4 -En3 -En2 En14 En15 En16 51328089#1 51328089#3 249295642#0 -189075356#8 150554195#0 150554195#2 150554195#3 249295642#4 249295642#5 249295642#6 249295642#7 249295642#8 189075389 740014433#0 740014433#1" >
        <stop busStop="7314733468" duration="20" until="39.0"/> <!-- Fahrlach -->
        <stop busStop="7314733467" duration="20" until="162.0"/> <!-- Technoseum Süd -->
        <stop busStop="169586417" duration="20" until="228.0"/> <!-- Planetarium -->
        <stop busStop="1772602056" duration="20" until="300.0"/> <!-- Weberstraße -->
        <stop busStop="1772602021" duration="20" until="397.0"/> <!-- Pestalozzischule -->
        <stop busStop="1772602060" duration="20" until="584.0"/> <!-- Werderstraße -->
        <stop busStop="1450516865" duration="20" until="757.0"/> <!-- Tattersall D -->
        <stop busStop="7306708513" duration="20" until="956.0"/> <!-- Kunsthalle -->
        <stop busStop="7306708512" duration="20" until="1064.0"/> <!-- Wasserturm -->
        <stop busStop="7304372577" duration="20" until="1141.0"/> <!-- Strohmarkt -->
        <stop busStop="248787902" duration="20" until="1215.0"/> <!-- Paradeplatz -->
        <stop busStop="2390911963" duration="20" until="1322.0"/> <!-- Rathaus/REM -->
        <stop busStop="318324199" duration="20" until="1391.0"/> <!-- Rheinstraße -->
        <stop busStop="27088447" duration="20" until="1453.0"/> <!-- Handelshafen -->
    </route>
    <route id="tram_5:2" color="0,150,93" edges="906995409#3 131849529#0 906995406 85270636#1 999663994#14 249143137 280873263#1 280873255 778989039#0 778989039#1 778989039#2 778989039#3 189068695#4 906995422#4 384843844#1 384843844#2 278441979 104229437#0 104229437#2 E13_n5 -E11_n5 -E6_n5 -E4_n5 -E3_n5 E8_n5 163970105#0 163970105#1 229239387#0 229239387#3 150663770#0 150663770#1 150663770#2 150663770#3 150663770#5 229239393 283039930#0 283039930#1 229239395#1 E5_y10 E5_y10.48 E7_y10 E8_y10" >
        <stop busStop="244371429" duration="20" until="44.0"/> <!-- Kunsthalle -->
        <stop busStop="1410606896" duration="20" until="300.0"/> <!-- MA hauptbahnhof D -->
        <stop busStop="7315096513" duration="20" until="843.0"/> <!-- Schloss -->
        <stop busStop="8764658150" duration="20" until="944.0"/> <!-- Paradeplatz -->
        <stop busStop="7306708511" duration="20" until="1022.0"/> <!-- Marktplatz -->
        <stop busStop="7306708509" duration="20" until="1098.0"/> <!-- Abendakademie -->
        <stop busStop="bsColliniCenter1" duration="20" until="1322.0"/> <!-- Collini Center -->
        <stop busStop="bs_lessingstra2" duration="20" until="1404.0"/> <!-- Lessingstraße -->
        <stop busStop="bs_fernmeldeturm2" duration="20" until="1487.0"/> <!-- Fernmeldturm -->
    </route>